file 3982 1638259383                                            
version 2
run General-0-20211130-08:02:37-2910
attr configname General
attr datetime 20211130-08:02:37
attr experiment General
attr inifile omnetpp.ini
attr iterationvars ""
attr iterationvarsf ""
attr measurement ""
attr network org.car2x.veins.nodes.Scenario
attr processid 2910
attr repetition 0
attr replication #0
attr resultdir results
attr runnumber 0
attr seedset 0
param *.playgroundSizeX 3000m
param *.playgroundSizeY 2000m
param *.playgroundSizeZ 50m
param *.manager.updateInterval 1s
param *.manager.host "\"localhost\""
param *.manager.port 9999
param *.manager.autoShutdown true
param *.manager.launchConfig "xmldoc(\"veins.launchd.xml\")"
param *.annotations.draw true
param *.connectionManager.sendDirect true
param *.connectionManager.maxInterfDist 500m
param *.connectionManager.drawMaxIntfDist false
param *.**.nic.mac1609_4.useServiceChannel false
param *.**.nic.mac1609_4.txPower 20mW
param *.**.nic.mac1609_4.bitrate 6Mbps
param *.**.nic.phy80211p.minPowerLevel -110dBm
param *.**.nic.phy80211p.useNoiseFloor true
param *.**.nic.phy80211p.noiseFloor -98dBm
param *.**.nic.phy80211p.decider "xmldoc(\"config.xml\")"
param *.**.nic.phy80211p.analogueModels "xmldoc(\"config.xml\")"
param *.**.nic.phy80211p.usePropagationDelay true
param *.**.nic.phy80211p.antenna "xmldoc(\"antenna.xml\", \"/root/Antenna[@id='monopole']\")"
param *.node[*].nic.phy80211p.antennaOffsetY "0 m"
param *.node[*].nic.phy80211p.antennaOffsetZ "0 m"
param *.node[*].applType "\"InteractingVehicle\""
param *.node[*].appl.headerLength "88 bit"
param *.node[*].appl.dataLengthBits "512 bit"
param *.node[*].appl.sendBeacons false
param *.node[*].appl.dataOnSch false
param *.node[*].appl.beaconInterval 1s
param *.node[*].veinsmobility.x 0
param *.node[*].veinsmobility.y 0
param *.node[*].veinsmobility.z 0

vector 0 Scenario.node[0].veinsmobility posx ETV
vector 1 Scenario.node[0].veinsmobility posy ETV
0	1903 22 9 9 8 8 1 2378.1077071429 2378.1077071429 2378.1077071429 5655396.2667723
1	1925 22 9 9 8 8 1 59.632292857143 59.632292857143 59.632292857143 3556.0103514
vector 2 Scenario.node[0].veinsmobility speed ETV
0	1997 23 18 18 9 9 1 2366.9072153225 2366.9072153225 2366.9072153225 5602249.7659456
1	2020 23 18 18 9 9 1 70.832784677533 70.832784677533 70.832784677533 5017.2833851738
2	2043 23 18 18 9 9 1 1.5972831639228 1.5972831639228 1.5972831639228 2.5513135057514
vector 3 Scenario.node[0].veinsmobility acceleration ETV
vector 4 Scenario.node[0].veinsmobility co2emission ETV
0	2179 24 19 19 10 10 1 2340.1984368018 2340.1984368018 2340.1984368018 5476528.7236096
1	2203 23 19 19 10 10 1 97.54156319819 97.54156319819 97.54156319819 9514.3565511465
2	2226 24 19 19 10 10 1 3.8088936578948 3.8088936578948 3.8088936578948 14.507670897151
3	2250 23 19 19 10 10 1 2.211610493972 2.211610493972 2.211610493972 4.8912209770469
4	2273 23 19 19 10 10 1 3.328978911834 3.328978911834 3.328978911834 11.082100595436
0	2296 24 20 20 11 11 1 2295.4470733637 2295.4470733637 2295.4470733637 5269077.2666139
1	2320 24 20 20 11 11 1 142.29292663632 142.29292663632 142.29292663632 20247.276970731
2	2344 24 20 20 11 11 1 6.3819161273073 6.3819161273073 6.3819161273073 40.728853455986
3	2368 24 20 20 11 11 1 2.5730224694125 2.5730224694125 2.5730224694125 6.6204446281018
4	2392 24 20 20 11 11 1 5.3992915792338 5.3992915792338 5.3992915792338 29.152349557585
0	2416 24 21 21 12 12 1 2236.9725745118 2236.9725745118 2236.9725745118 5004046.2991178
1	2440 24 21 21 12 12 1 200.76742548824 200.76742548824 200.76742548824 40307.559137176
2	2464 24 21 21 12 12 1 8.3389492205111 8.3389492205111 8.3389492205111 69.538074102263
3	2488 24 21 21 12 12 1 1.9570330932038 1.9570330932038 1.9570330932038 3.8299785278948
4	2512 24 21 21 12 12 1 5.4988625648564 5.4988625648564 5.4988625648564 30.237489507179
0	2536 24 22 22 13 13 1 2166.0425788535 2166.0425788535 2166.0425788535 4691740.4534063
1	2560 24 22 22 13 13 1 271.69742114651 271.69742114651 271.69742114651 73819.488657665
2	2584 24 22 22 13 13 1 10.115206519398 10.115206519398 10.115206519398 102.31740293007
3	2608 24 22 22 13 13 1 1.7762572988868 1.7762572988868 1.7762572988868 3.1550899918485
4	2632 24 22 22 13 13 1 6.0236636293657 6.0236636293657 6.0236636293657 36.284523519743
0	2656 23 23 23 14 14 1 2080.919296506 2080.919296506 2080.919296506 4330225.1185712
1	2679 24 23 23 14 14 1 356.82070349396 356.82070349396 356.82070349396 127321.01444192
2	2703 23 23 23 14 14 1 12.13928708951 12.13928708951 12.13928708951 147.36229104154
3	2726 23 23 23 14 14 1 2.024080570112 2.024080570112 2.024080570112 4.0969021543048
4	2749 24 23 23 14 14 1 7.7824390349409 7.7824390349409 7.7824390349409 60.566357332572
vector 5 Scenario.node[1].veinsmobility posx ETV
vector 6 Scenario.node[1].veinsmobility posy ETV
0	2871 24 24 24 15 15 1 1984.3902622836 1984.3902622836 1984.3902622836 3937804.7130459
1	2895 24 24 24 15 15 1 453.34973771642 453.34973771642 453.34973771642 205525.98468755
2	2919 24 24 24 15 15 1 13.765842042095 13.765842042095 13.765842042095 189.49840712791
3	2943 24 24 24 15 15 1 1.6265549525851 1.6265549525851 1.6265549525851 2.6456810137792
4	2967 24 24 24 15 15 1 7.4112507918511 7.4112507918511 7.4112507918511 54.926638299713
5	2991 24 24 24 15 15 1 2774.4273071429 2774.4273071429 2774.4273071429 7697446.88262
6	3015 15 24 24 15 15 1 1013.4 1013.4 1013.4 1026979.56
vector 7 Scenario.node[1].veinsmobility speed ETV
0	3080 24 33 33 16 16 1 1883.2458681211 1883.2458681211 1883.2458681211 3546614.9997952
1	3104 24 33 33 16 16 1 554.49413187889 554.49413187889 554.49413187889 307463.74228812
2	3128 24 33 33 16 16 1 14.424030704327 14.424030704327 14.424030704327 208.05266175938
3	3152 25 33 33 16 16 1 0.65818866223228 0.65818866223228 0.65818866223228 0.43321231509111
4	3177 24 33 33 16 16 1 4.3710301454796 4.3710301454796 4.3710301454796 19.105904532691
5	3201 24 33 33 16 16 1 2748.7788840879 2748.7788840879 2748.7788840879 7555785.3536075
6	3225 15 33 33 16 16 1 1013.4 1013.4 1013.4 1026979.56
7	3240 24 33 33 16 16 1 2.5865135943983 2.5865135943983 2.5865135943983 6.6900525740071
vector 8 Scenario.node[1].veinsmobility acceleration ETV
vector 9 Scenario.node[1].veinsmobility co2emission ETV
0	3377 24 34 34 17 17 1 1779.0622004071 1779.0622004071 1779.0622004071 3165062.3129173
1	3401 23 34 34 17 17 1 658.6777995929 658.6777995929 658.6777995929 433856.44367655
2	3424 24 34 34 17 17 1 14.857456356726 14.857456356726 14.857456356726 220.74400939202
3	3448 25 34 34 17 17 1 0.43342565239873 0.43342565239873 0.43342565239873 0.18785779615726
4	3473 24 34 34 17 17 1 3.6816424521361 3.6816424521361 3.6816424521361 13.554491145371
5	3497 24 34 34 17 17 1 2702.0465996144 2702.0465996144 2702.0465996144 7301055.826488
6	3521 15 34 34 17 17 1 1013.4 1013.4 1013.4 1026979.56
7	3536 24 34 34 17 17 1 4.7127142603975 4.7127142603975 4.7127142603975 22.209675700154
8	3560 24 34 34 17 17 1 2.1262006659992 2.1262006659992 2.1262006659992 4.5207292720955
9	3584 24 34 34 17 17 1 3.7618728991628 3.7618728991628 3.7618728991628 14.151687709455
vector 10 Scenario.node[2].veinsmobility posx ETV
vector 11 Scenario.node[2].veinsmobility posy ETV
0	3708 24 35 35 18 18 1 1675.6516934568 1675.6516934568 1675.6516934568 2807808.5977845
1	3732 24 35 35 18 18 1 762.08830654323 762.08830654323 762.08830654323 580778.58696993
2	3756 24 35 35 18 18 1 14.747197210017 14.747197210017 14.747197210017 217.47982555113
3	3780 26 35 35 18 18 1 -0.11025914670899 -0.11025914670899 -0.11025914670899 0.012157079432996
4	3806 24 35 35 18 18 1 1.7258147640129 1.7258147640129 1.7258147640129 2.9784365996847
5	3830 24 35 35 18 18 1 2636.0018628406 2636.0018628406 2636.0018628406 6948505.8208993
6	3854 15 35 35 18 18 1 1013.4 1013.4 1013.4 1026979.56
7	3869 24 35 35 18 18 1 6.6602772863582 6.6602772863582 6.6602772863582 44.359293531179
8	3893 24 35 35 18 18 1 1.9475630259607 1.9475630259607 1.9475630259607 3.7930017400892
9	3917 23 35 35 18 18 1 4.584670330842 4.584670330842 4.584670330842 21.019202042503
10	3940 25 35 35 18 18 1 2774.4273071429 2774.4273071429 2774.4273071429 7697446.88262
11	3965 16 35 35 18 18 1 1013.4 1013.4 1013.4 1026979.56

