                                                                
version 2
run General-0-20211112-08:41:30-4235
attr configname General
attr datetime 20211112-08:41:30
attr experiment General
attr inifile omnetpp.ini
attr iterationvars ""
attr iterationvarsf ""
attr measurement ""
attr network org.car2x.veins.nodes.Scenario
attr processid 4235
attr repetition 0
attr replication #0
attr resultdir results
attr runnumber 0
attr seedset 0
param *.playgroundSizeX 3000m
param *.playgroundSizeY 2000m
param *.playgroundSizeZ 50m
param *.manager.updateInterval 1s
param *.manager.host "\"localhost\""
param *.manager.port 9999
param *.manager.autoShutdown true
param *.manager.launchConfig "xmldoc(\"veins.launchd.xml\")"
param *.annotations.draw true
param *.connectionManager.sendDirect true
param *.connectionManager.maxInterfDist 500m
param *.connectionManager.drawMaxIntfDist false
param *.**.nic.mac1609_4.useServiceChannel false
param *.**.nic.mac1609_4.txPower 20mW
param *.**.nic.mac1609_4.bitrate 6Mbps
param *.**.nic.phy80211p.minPowerLevel -110dBm
param *.**.nic.phy80211p.useNoiseFloor true
param *.**.nic.phy80211p.noiseFloor -98dBm
param *.**.nic.phy80211p.decider "xmldoc(\"config.xml\")"
param *.**.nic.phy80211p.analogueModels "xmldoc(\"config.xml\")"
param *.**.nic.phy80211p.usePropagationDelay true
param *.**.nic.phy80211p.antenna "xmldoc(\"antenna.xml\", \"/root/Antenna[@id='monopole']\")"
param *.node[*].nic.phy80211p.antennaOffsetY "0 m"
param *.node[*].nic.phy80211p.antennaOffsetZ "0 m"
param *.node[*].applType "\"InteractingVehicle\""
param *.node[*].appl.headerLength "88 bit"
param *.node[*].appl.dataLengthBits "512 bit"
param *.node[*].appl.sendBeacons false
param *.node[*].appl.dataOnSch false
param *.node[*].appl.beaconInterval 1s
param *.node[*].veinsmobility.x 0
param *.node[*].veinsmobility.y 0
param *.node[*].veinsmobility.z 0
param *.obstacles.obstacles "xmldoc(\"config.xml\", \"//AnalogueModel[@type='SimpleObstacleShadowing']/obstacles\")"

vector 0 Scenario.node[0].veinsmobility posx ETV
vector 1 Scenario.node[0].veinsmobility posy ETV
vector 2 Scenario.node[0].veinsmobility speed ETV
vector 3 Scenario.node[0].veinsmobility acceleration ETV
vector 4 Scenario.node[0].veinsmobility co2emission ETV
vector 5 Scenario.node[1].veinsmobility posx ETV
vector 6 Scenario.node[1].veinsmobility posy ETV
vector 7 Scenario.node[1].veinsmobility speed ETV
vector 8 Scenario.node[1].veinsmobility acceleration ETV
vector 9 Scenario.node[1].veinsmobility co2emission ETV
vector 10 Scenario.node[2].veinsmobility posx ETV
vector 11 Scenario.node[2].veinsmobility posy ETV
vector 12 Scenario.node[2].veinsmobility speed ETV
vector 13 Scenario.node[3].veinsmobility posx ETV
vector 14 Scenario.node[3].veinsmobility posy ETV
vector 15 Scenario.node[2].veinsmobility acceleration ETV
vector 16 Scenario.node[2].veinsmobility co2emission ETV
vector 17 Scenario.node[3].veinsmobility speed ETV
vector 18 Scenario.node[3].veinsmobility acceleration ETV
vector 19 Scenario.node[3].veinsmobility co2emission ETV
vector 20 Scenario.node[4].veinsmobility posx ETV
vector 21 Scenario.node[4].veinsmobility posy ETV
vector 22 Scenario.node[5].veinsmobility posx ETV
vector 23 Scenario.node[5].veinsmobility posy ETV
vector 24 Scenario.node[4].veinsmobility speed ETV
vector 25 Scenario.node[4].veinsmobility acceleration ETV
vector 26 Scenario.node[4].veinsmobility co2emission ETV
vector 27 Scenario.node[5].veinsmobility speed ETV
vector 28 Scenario.node[6].veinsmobility posx ETV
vector 29 Scenario.node[6].veinsmobility posy ETV
vector 30 Scenario.node[5].veinsmobility acceleration ETV
vector 31 Scenario.node[5].veinsmobility co2emission ETV
vector 32 Scenario.node[6].veinsmobility speed ETV
vector 33 Scenario.node[6].veinsmobility acceleration ETV
vector 34 Scenario.node[6].veinsmobility co2emission ETV
vector 35 Scenario.node[7].veinsmobility posx ETV
vector 36 Scenario.node[7].veinsmobility posy ETV
vector 37 Scenario.node[7].veinsmobility speed ETV
vector 38 Scenario.node[7].veinsmobility acceleration ETV
vector 39 Scenario.node[7].veinsmobility co2emission ETV
vector 40 Scenario.node[8].veinsmobility posx ETV
vector 41 Scenario.node[8].veinsmobility posy ETV
vector 42 Scenario.node[9].veinsmobility posx ETV
vector 43 Scenario.node[9].veinsmobility posy ETV
vector 44 Scenario.node[8].veinsmobility speed ETV
vector 45 Scenario.node[8].veinsmobility acceleration ETV
vector 46 Scenario.node[8].veinsmobility co2emission ETV
vector 47 Scenario.node[9].veinsmobility speed ETV
vector 48 Scenario.node[10].veinsmobility posx ETV
vector 49 Scenario.node[10].veinsmobility posy ETV
vector 50 Scenario.node[9].veinsmobility acceleration ETV
vector 51 Scenario.node[9].veinsmobility co2emission ETV
4	4674 500 10 32 9 31 23 0.973 10.874577109877 104.50882965712 670.20514571148
3	5174 553 10 32 9 31 23 -4.5 2.5730224694125 13.891617256493 84.621404654677
2	5727 571 9 32 8 31 24 1.5972831639228 15.488900420416 286.49171857443 3807.9882880986
1	6298 503 8 32 7 31 25 59.632292857143 1013.4 17612.31526015 15778916.04494
0	6801 593 8 32 7 31 25 59.152294684284 2378.1077071429 36426.971059667 65400545.083988
vector 52 Scenario.node[11].veinsmobility posx ETV
vector 53 Scenario.node[11].veinsmobility posy ETV
vector 54 Scenario.node[10].veinsmobility speed ETV
vector 55 Scenario.node[10].veinsmobility acceleration ETV
vector 56 Scenario.node[10].veinsmobility co2emission ETV
vector 57 Scenario.node[11].veinsmobility speed ETV
vector 58 Scenario.node[11].veinsmobility acceleration ETV
vector 59 Scenario.node[11].veinsmobility co2emission ETV
vector 60 Scenario.node[12].veinsmobility posx ETV
vector 61 Scenario.node[12].veinsmobility posy ETV
vector 62 Scenario.node[13].veinsmobility posx ETV
vector 63 Scenario.node[13].veinsmobility posy ETV
vector 64 Scenario.node[12].veinsmobility speed ETV
vector 65 Scenario.node[13].veinsmobility speed ETV
9	8142 529 13 37 12 36 25 0.973 10.23712136297 95.542909372848 551.53159797955
8	8671 618 13 37 12 36 25 -4.1501906085221 2.404508772539 11.764742069749 78.765155625938
7	9289 619 12 37 11 36 26 1.7762572988868 14.420647808338 280.99843685158 3396.3316835076
6	9908 557 11 37 10 36 27 59.632292857143 1013.4 19281.176580704 17344444.190727
5	10465 643 11 37 10 36 27 113.8759748301 2378.1077071429 39558.820119416 70283218.959358
vector 66 Scenario.node[12].veinsmobility acceleration ETV
vector 67 Scenario.node[12].veinsmobility co2emission ETV
vector 68 Scenario.node[13].veinsmobility acceleration ETV
vector 69 Scenario.node[13].veinsmobility co2emission ETV
vector 70 Scenario.node[14].veinsmobility posx ETV
vector 71 Scenario.node[14].veinsmobility posy ETV
vector 72 Scenario.node[14].veinsmobility speed ETV
19	11496 511 18 40 17 39 23 0.973 9.0416141301738 73.584207398889 352.38165384548
18	12007 597 18 40 17 39 23 -1.2585241494235 2.5901939699426 10.230885826472 29.342152727675
17	12604 597 17 40 16 39 24 2.5865135943983 14.085233650661 289.63529942282 3721.1984406453
14	13201 400 16 40 15 39 25 1013.4 1013.4 25335 25674489
13	13601 621 16 40 15 39 25 48.05888181414 2774.4273071429 38376.615077962 77204543.009356
vector 73 Scenario.node[14].veinsmobility acceleration ETV
vector 74 Scenario.node[14].veinsmobility co2emission ETV
vector 75 Scenario.node[15].veinsmobility posx ETV
vector 76 Scenario.node[15].veinsmobility posy ETV
vector 77 Scenario.node[15].veinsmobility speed ETV
vector 78 Scenario.node[15].veinsmobility acceleration ETV
vector 79 Scenario.node[15].veinsmobility co2emission ETV
vector 80 Scenario.node[16].veinsmobility posx ETV
vector 81 Scenario.node[16].veinsmobility posy ETV
vector 82 Scenario.node[17].veinsmobility posx ETV
vector 83 Scenario.node[17].veinsmobility posy ETV
vector 84 Scenario.node[16].veinsmobility speed ETV
26	14866 559 21 46 20 45 26 0.973 8.5382908044007 73.38417869813 309.43137362584
25	15425 679 21 46 20 45 26 -1.1649683014257 2.4260216072435 9.3037415911913 31.462951944558
24	16104 673 20 46 19 45 27 1.9554947123397 12.233822048037 289.9156122512 3270.9353791409
21	16777 448 19 46 18 45 28 1013.4 1013.4 28375.2 28755427.68
20	17225 697 19 46 18 45 28 45.266425440108 2774.4273071429 42269.293076287 83618611.256518
vector 85 Scenario.node[16].veinsmobility acceleration ETV
vector 86 Scenario.node[16].veinsmobility co2emission ETV
vector 87 Scenario.node[17].veinsmobility speed ETV
34	18091 509 24 47 23 46 24 0.973 10.275752918996 78.940961726937 405.85581466414
33	18600 625 24 47 23 46 24 -2.0683561382038 2.4239473111462 9.7091158054283 41.874362639044
32	19225 623 23 47 22 46 25 1.4596124283038 15.187191945201 280.72441898637 3409.6072755782
29	19848 416 22 47 21 46 26 1013.4 1013.4 26348.4 26701468.56
28	20264 648 22 47 21 46 26 136.82843623058 2774.4273071429 40361.848120609 80842468.57145
vector 88 Scenario.node[18].veinsmobility posx ETV
vector 89 Scenario.node[18].veinsmobility posy ETV
vector 90 Scenario.node[17].veinsmobility acceleration ETV
vector 91 Scenario.node[17].veinsmobility co2emission ETV
vector 92 Scenario.node[19].veinsmobility posx ETV
vector 93 Scenario.node[19].veinsmobility posy ETV
vector 94 Scenario.node[18].veinsmobility speed ETV
vector 95 Scenario.node[18].veinsmobility acceleration ETV
vector 96 Scenario.node[18].veinsmobility co2emission ETV
vector 97 Scenario.node[19].veinsmobility speed ETV
vector 98 Scenario.node[20].veinsmobility posx ETV
vector 99 Scenario.node[20].veinsmobility posy ETV
vector 100 Scenario.node[19].veinsmobility acceleration ETV
vector 101 Scenario.node[19].veinsmobility co2emission ETV
16	21675 778 16 51 15 50 36 0.973 9.9155315668523 108.93152998181 527.13851909345
15	22453 853 16 51 15 50 36 -4.5 2.3424416411202 10.856237757482 105.23408276319
12	23306 860 15 51 14 50 37 0 14.247717444921 277.14037980218 3175.6852911017
11	24166 848 14 51 13 50 38 59.632292857143 1013.4 30541.025046429 28630061.210303
10	25014 948 14 51 13 50 38 152.30966358069 2378.1077071429 55355.929662135 92311084.317401
vector 102 Scenario.node[21].veinsmobility posx ETV
vector 103 Scenario.node[21].veinsmobility posy ETV
vector 104 Scenario.node[20].veinsmobility speed ETV
vector 105 Scenario.node[20].veinsmobility acceleration ETV
vector 106 Scenario.node[20].veinsmobility co2emission ETV
vector 107 Scenario.node[21].veinsmobility speed ETV
vector 108 Scenario.node[21].veinsmobility acceleration ETV
vector 109 Scenario.node[21].veinsmobility co2emission ETV
vector 110 Scenario.node[22].veinsmobility posx ETV
vector 111 Scenario.node[22].veinsmobility posy ETV
vector 112 Scenario.node[23].veinsmobility posx ETV
vector 113 Scenario.node[23].veinsmobility posy ETV
vector 114 Scenario.node[22].veinsmobility speed ETV
vector 115 Scenario.node[23].veinsmobility speed ETV
vector 116 Scenario.node[22].veinsmobility acceleration ETV
vector 117 Scenario.node[22].veinsmobility co2emission ETV
vector 118 Scenario.node[23].veinsmobility acceleration ETV
vector 119 Scenario.node[23].veinsmobility co2emission ETV
vector 120 Scenario.node[24].veinsmobility posx ETV
vector 121 Scenario.node[24].veinsmobility posy ETV
39	27066 681 28 58 27 57 31 0.973 5.7054161615932 73.108748344345 221.19321865955
38	27747 816 28 58 27 57 31 -1.1260618436849 1.865669381828 9.0348209861582 21.444671143732
37	28563 799 27 58 26 57 32 1.3637467617635 10.557320192285 291.30592353115 2809.3362905626
36	29362 528 26 58 25 57 33 1013.4 1013.4 33442.2 33890325.48
35	29890 824 26 58 25 57 33 31.416243777225 2774.4273071429 50180.826174131 100160951.68966
vector 122 Scenario.node[24].veinsmobility speed ETV
46	30767 632 31 59 30 58 29 0.973 7.0911579077746 78.935575203147 291.99444901872
45	31399 756 31 59 30 58 29 -2.7256641964289 2.0975796846906 9.9646697095201 34.835928748584
44	32155 742 30 59 29 58 30 1.0202541800766 12.832604750429 282.38694952728 2847.9666857356
41	32897 496 29 59 28 58 31 1013.4 1013.4 31415.4 31836366.36
40	33393 772 29 59 28 58 31 120.26642573422 2774.4273071429 47941.420928611 95430418.818529
vector 123 Scenario.node[24].veinsmobility acceleration ETV
vector 124 Scenario.node[24].veinsmobility co2emission ETV
vector 125 Scenario.node[25].veinsmobility posx ETV
vector 126 Scenario.node[25].veinsmobility posy ETV
56	34388 589 34 61 33 60 28 0.973 6.6556054905595 77.978221735072 323.33013209756
55	34977 728 34 61 33 60 28 -1.0468420997411 2.512029569014 10.93164299218 35.061574560844
54	35705 724 33 61 32 60 29 1.1601757370042 12.586084399173 284.41393172939 2961.3067220737
49	36429 480 32 61 31 60 30 1013.4 1013.4 30402 30809386.8
48	36909 747 32 61 31 60 30 100.07377382126 2774.4273071429 45310.601914888 88930912.046997
vector 127 Scenario.node[25].veinsmobility speed ETV
vector 128 Scenario.node[25].veinsmobility acceleration ETV
vector 129 Scenario.node[25].veinsmobility co2emission ETV
67	37828 588 38 63 37 62 26 0.973 7.5981475100823 88.115774842498 409.48189864446
66	38416 669 38 63 37 62 26 -1.982155621854 2.2839496216737 12.027537308193 43.073748403774
64	39085 670 37 63 36 62 27 1.3379001913592 14.35826715287 288.42373247319 3358.3061532274
61	39755 448 36 63 35 62 28 1013.4 1013.4 28375.2 28755427.68
60	40203 695 36 63 35 62 28 60.128425225847 2774.4273071429 42315.156369853 84716366.563631
vector 130 Scenario.node[26].veinsmobility posx ETV
vector 131 Scenario.node[26].veinsmobility posy ETV
vector 132 Scenario.node[26].veinsmobility speed ETV
vector 133 Scenario.node[26].veinsmobility acceleration ETV
vector 134 Scenario.node[26].veinsmobility co2emission ETV
31	41174 993 22 66 21 65 45 0.973 6.3961705987203 108.94538433469 403.93788873343
30	42167 1154 22 66 21 65 45 -3.8294016422185 2.2591196405469 10.733331864896 93.524649154485
27	43321 1130 21 66 20 65 46 0 12.925542472173 288.00971276904 3085.3562295139
23	44451 1065 20 66 19 65 47 59.632292857143 1013.4 38892.658104609 36604139.273159
22	45516 1172 20 66 19 65 47 44.030144945765 2378.1077071429 67283.352490489 110395417.73168
vector 135 Scenario.node[27].veinsmobility posx ETV
vector 136 Scenario.node[27].veinsmobility posy ETV
vector 137 Scenario.node[28].veinsmobility posx ETV
vector 138 Scenario.node[28].veinsmobility posy ETV
vector 139 Scenario.node[27].veinsmobility speed ETV
86	46949 490 47 68 46 67 22 0.973 9.6332245678312 80.362127699256 433.06634291554
85	47439 572 47 68 46 67 22 -0.9544425000731 2.2885093853576 12.83952534586 30.845108062013
84	48011 574 46 68 45 67 23 2.1882217634469 15.360580664461 290.8689373645 4021.265515262
81	48585 384 45 68 44 67 24 1013.4 1013.4 24321.6 24647509.44
80	48969 596 45 68 44 67 24 35.769468756085 2774.4273071429 37813.314047078 77796157.022829
vector 140 Scenario.node[27].veinsmobility acceleration ETV
vector 141 Scenario.node[27].veinsmobility co2emission ETV
vector 142 Scenario.node[28].veinsmobility speed ETV
96	49737 467 50 69 49 68 20 0.973 8.8365884856837 80.4767055158 460.96869282354
95	50204 516 50 69 49 68 20 -1.6800436543885 2.5498578036902 12.470897453296 36.860565728792
94	50720 522 49 69 48 68 21 2.2363538199803 16.362176729299 279.26540373114 4048.487946381
89	51242 352 48 69 47 68 22 1013.4 1013.4 22294.8 22593550.32
88	51594 546 48 69 47 68 22 151.36304198782 2774.4273071429 35600.410436805 73157861.582413
vector 143 Scenario.node[29].veinsmobility posx ETV
vector 144 Scenario.node[29].veinsmobility posy ETV
vector 145 Scenario.node[28].veinsmobility acceleration ETV
vector 146 Scenario.node[28].veinsmobility co2emission ETV
vector 147 Scenario.node[29].veinsmobility speed ETV
vector 148 Scenario.node[29].veinsmobility acceleration ETV
vector 149 Scenario.node[29].veinsmobility co2emission ETV
vector 150 Scenario.node[30].veinsmobility posx ETV
vector 151 Scenario.node[30].veinsmobility posy ETV
vector 152 Scenario.node[31].veinsmobility posx ETV
vector 153 Scenario.node[31].veinsmobility posy ETV
vector 154 Scenario.node[30].veinsmobility speed ETV
vector 155 Scenario.node[30].veinsmobility acceleration ETV
vector 156 Scenario.node[30].veinsmobility co2emission ETV
vector 157 Scenario.node[31].veinsmobility speed ETV
vector 158 Scenario.node[32].veinsmobility posx ETV
vector 159 Scenario.node[32].veinsmobility posy ETV
vector 160 Scenario.node[31].veinsmobility acceleration ETV
vector 161 Scenario.node[31].veinsmobility co2emission ETV
vector 162 Scenario.node[33].veinsmobility posx ETV
vector 163 Scenario.node[33].veinsmobility posy ETV
vector 164 Scenario.node[32].veinsmobility speed ETV
106	53348 604 53 77 52 76 25 0.973 8.4042096215665 65.353108659958 238.56600680195
105	53952 682 53 77 52 76 25 -0.66617967409547 2.5547831946285 9.2141036803081 21.595069292498
104	54634 673 52 77 51 76 26 2.369301540032 12.244265754259 280.53454282226 3181.2972499078
99	55307 432 51 77 50 76 27 1013.4 1013.4 27361.8 27728448.12
98	55739 673 51 77 50 76 27 138.71996901487 2774.4273071429 42160.580321293 83874909.853657
vector 165 Scenario.node[32].veinsmobility acceleration ETV
vector 166 Scenario.node[32].veinsmobility co2emission ETV
vector 167 Scenario.node[33].veinsmobility speed ETV
vector 168 Scenario.node[34].veinsmobility posx ETV
vector 169 Scenario.node[34].veinsmobility posy ETV
vector 170 Scenario.node[33].veinsmobility acceleration ETV
vector 171 Scenario.node[33].veinsmobility co2emission ETV
vector 172 Scenario.node[34].veinsmobility speed ETV
vector 173 Scenario.node[34].veinsmobility acceleration ETV
vector 174 Scenario.node[34].veinsmobility co2emission ETV
vector 175 Scenario.node[35].veinsmobility posx ETV
vector 176 Scenario.node[35].veinsmobility posy ETV
vector 177 Scenario.node[35].veinsmobility speed ETV
vector 178 Scenario.node[36].veinsmobility posx ETV
vector 179 Scenario.node[36].veinsmobility posy ETV
vector 180 Scenario.node[35].veinsmobility acceleration ETV
vector 181 Scenario.node[35].veinsmobility co2emission ETV
vector 182 Scenario.node[37].veinsmobility posx ETV
vector 183 Scenario.node[37].veinsmobility posy ETV
vector 184 Scenario.node[36].veinsmobility speed ETV
vector 185 Scenario.node[36].veinsmobility acceleration ETV
vector 186 Scenario.node[36].veinsmobility co2emission ETV
vector 187 Scenario.node[37].veinsmobility speed ETV
117	57688 687 57 86 56 85 30 0.973 7.7669763402574 69.811577059619 231.64082741179
116	58375 817 57 86 56 85 30 -1.1811385603622 2.594067000295 7.0554958267698 26.178020748452
114	59192 805 56 86 55 85 31 2.2531933091814 10.381962845181 290.41664100101 2807.3938478131
111	59997 544 55 86 54 85 32 1013.4 1013.4 32428.8 32863345.92
110	60541 829 55 86 54 85 32 40.275212822319 2774.4273071429 47095.146544191 91320076.41478
vector 188 Scenario.node[37].veinsmobility acceleration ETV
vector 189 Scenario.node[37].veinsmobility co2emission ETV
124	61489 646 60 87 59 86 28 0.973 7.6691191514082 78.567336408594 322.65791398748
123	62135 753 60 87 59 86 28 -1.7439169883511 2.2980007355334 7.8744071929512 38.236769611875
122	62888 748 59 87 58 86 29 2.0226540115895 12.674778477953 281.10234169242 2871.7748795585
121	63636 510 58 87 57 86 30 1013.4 1013.4 30402 30809386.8
120	64146 776 58 87 57 86 30 133.06359722738 2774.4273071429 45043.608191914 87536095.321624
vector 190 Scenario.node[38].veinsmobility posx ETV
vector 191 Scenario.node[38].veinsmobility posy ETV
vector 192 Scenario.node[38].veinsmobility speed ETV
129	65079 591 63 89 62 88 27 0.973 7.6971716050425 83.623836117226 408.63163479434
128	65670 731 63 89 62 88 27 -1.6260470250745 2.589411442983 10.422761446162 42.497014952288
127	66401 722 62 89 61 88 28 1.5375984618207 14.940498508006 284.44956290126 3109.7919962444
126	67123 493 61 89 60 88 29 1013.4 1013.4 29388.6 29782407.24
125	67616 750 61 89 60 88 29 99.718818632123 2774.4273071429 43228.479507943 84483111.167889
vector 193 Scenario.node[39].veinsmobility posx ETV
vector 194 Scenario.node[39].veinsmobility posy ETV
vector 195 Scenario.node[38].veinsmobility acceleration ETV
vector 196 Scenario.node[38].veinsmobility co2emission ETV
vector 197 Scenario.node[40].veinsmobility posx ETV
vector 198 Scenario.node[40].veinsmobility posy ETV
vector 199 Scenario.node[39].veinsmobility speed ETV
134	68746 594 66 91 65 90 26 0.973 8.5526415665766 88.973779397159 418.83748295287
133	69340 691 66 91 65 90 26 -2.4008579212818 2.4660297393799 11.002668136977 44.269637913664
132	70031 697 65 91 64 90 27 1.8769185636193 13.563917389549 287.43952738927 3295.7747748591
131	70728 476 64 91 63 90 28 1013.4 1013.4 28375.2 28755427.68
130	71204 725 64 91 63 90 28 69.933005971452 2774.4273071429 42417.748582312 84646347.982756
vector 200 Scenario.node[39].veinsmobility acceleration ETV
vector 201 Scenario.node[39].veinsmobility co2emission ETV
vector 202 Scenario.node[40].veinsmobility speed ETV
vector 203 Scenario.node[41].veinsmobility posx ETV
vector 204 Scenario.node[41].veinsmobility posy ETV
vector 205 Scenario.node[40].veinsmobility acceleration ETV
vector 206 Scenario.node[40].veinsmobility co2emission ETV
141	72324 597 69 93 68 92 25 0.973 8.634439250629 85.140306676704 415.08240336436
140	72921 673 69 93 68 92 25 -2.2895108735623 2.5506400116254 11.109164075017 43.64609695177
139	73594 672 68 93 67 92 26 1.8612768378574 14.151171878515 290.89542610505 3505.9497563388
136	74266 459 67 93 66 92 27 1013.4 1013.4 27361.8 27728448.12
135	74725 697 67 93 66 92 27 35.505589814778 2774.4273071429 40796.005981913 81890123.314758
vector 207 Scenario.node[42].veinsmobility posx ETV
vector 208 Scenario.node[42].veinsmobility posy ETV
vector 209 Scenario.node[41].veinsmobility speed ETV
149	75579 535 72 94 71 93 23 0.973 8.6915325530881 86.254715212273 468.44578901216
148	76114 615 72 94 71 93 23 -3.2116807251283 2.4536939490819 10.233814477995 48.002088277661
147	76729 623 71 94 70 93 24 2.5611636193004 14.337386969378 280.07301052709 3522.1936516522
144	77352 425 70 94 69 93 25 1013.4 1013.4 25335 25674489
143	77777 650 70 94 69 93 25 143.31772077273 2774.4273071429 39325.735385333 79285175.171082
vector 210 Scenario.node[41].veinsmobility acceleration ETV
vector 211 Scenario.node[41].veinsmobility co2emission ETV
vector 212 Scenario.node[42].veinsmobility speed ETV
vector 213 Scenario.node[43].veinsmobility posx ETV
vector 214 Scenario.node[43].veinsmobility posy ETV
vector 215 Scenario.node[42].veinsmobility acceleration ETV
vector 216 Scenario.node[42].veinsmobility co2emission ETV
156	78822 507 75 96 74 95 22 0.973 9.884746010226 71.321996838252 347.14322430938
155	79329 599 75 96 74 95 22 -0.88510704233777 2.5103725137422 11.74742106582 28.546383567058
154	79928 598 74 96 73 95 23 1.9273016948951 14.535345600344 279.74282112506 3674.9949007676
151	80526 408 73 96 72 95 24 1013.4 1013.4 24321.6 24647509.44
150	80934 616 73 96 72 95 24 146.60704401077 2774.4273071429 38532.664142538 78440090.182773
vector 217 Scenario.node[44].veinsmobility posx ETV
vector 218 Scenario.node[44].veinsmobility posy ETV
vector 219 Scenario.node[43].veinsmobility speed ETV
vector 220 Scenario.node[43].veinsmobility acceleration ETV
vector 221 Scenario.node[43].veinsmobility co2emission ETV
vector 222 Scenario.node[44].veinsmobility speed ETV
166	81879 516 78 98 77 97 21 0.973 8.5074208047185 76.859731537383 389.17421703903
165	82395 566 78 98 77 97 21 -0.85026641080622 2.5458289652597 13.250210755022 27.370256258518
164	82961 569 77 98 76 97 22 2.1919916117564 15.800102408912 279.61904854855 3910.9781064751
159	83530 391 76 98 75 97 23 1013.4 1013.4 23308.2 23620529.88
158	83921 596 76 98 75 97 23 147.84005757713 2774.4273071429 37738.511386559 78022422.458049
vector 223 Scenario.node[45].veinsmobility posx ETV
vector 224 Scenario.node[45].veinsmobility posy ETV
vector 225 Scenario.node[46].veinsmobility posx ETV
vector 226 Scenario.node[46].veinsmobility posy ETV
vector 227 Scenario.node[44].veinsmobility acceleration ETV
vector 228 Scenario.node[44].veinsmobility co2emission ETV
vector 229 Scenario.node[45].veinsmobility speed ETV
vector 230 Scenario.node[46].veinsmobility speed ETV
vector 231 Scenario.node[45].veinsmobility acceleration ETV
vector 232 Scenario.node[45].veinsmobility co2emission ETV
vector 233 Scenario.node[46].veinsmobility acceleration ETV
vector 234 Scenario.node[46].veinsmobility co2emission ETV
174	85188 496 81 101 80 100 21 0.973 10.571341840915 85.257605920772 508.28707887209
173	85684 566 81 101 80 100 21 -1.1577396643348 2.5560031323927 14.222476266482 34.018481133767
172	86250 573 80 101 79 100 22 1.922066505393 16.442812287057 288.50749016152 4248.207051393
169	86823 394 79 101 78 100 23 1013.4 1013.4 23308.2 23620529.88
168	87217 598 79 101 78 100 23 59.294037117399 2774.4273071429 37403.018920167 78266843.949464
vector 235 Scenario.node[47].veinsmobility posx ETV
vector 236 Scenario.node[47].veinsmobility posy ETV
vector 237 Scenario.node[48].veinsmobility posx ETV
vector 238 Scenario.node[48].veinsmobility posy ETV
vector 239 Scenario.node[47].veinsmobility speed ETV
vector 240 Scenario.node[47].veinsmobility acceleration ETV
vector 241 Scenario.node[47].veinsmobility co2emission ETV
vector 242 Scenario.node[48].veinsmobility speed ETV
vector 243 Scenario.node[48].veinsmobility acceleration ETV
vector 244 Scenario.node[48].veinsmobility co2emission ETV
vector 245 Scenario.node[49].veinsmobility posx ETV
vector 246 Scenario.node[49].veinsmobility posy ETV
vector 247 Scenario.node[49].veinsmobility speed ETV
181	88524 576 84 107 83 106 24 0.973 6.4693851503586 72.149657876946 289.70223322939
180	89100 666 84 107 83 106 24 -0.95828949448187 2.1991003464675 9.9611801353957 23.262263042949
177	89766 660 83 107 82 106 25 2.5526133754989 13.591127198862 290.26922905985 3589.630862709
176	90426 457 82 107 81 106 26 1013.4 1013.4 26348.4 26701468.56
175	90883 691 82 107 81 106 26 41.743720050676 2774.4273071429 40013.090641976 80719980.834968
vector 248 Scenario.node[49].veinsmobility acceleration ETV
vector 249 Scenario.node[49].veinsmobility co2emission ETV
vector 250 Scenario.node[50].veinsmobility posx ETV
vector 251 Scenario.node[50].veinsmobility posy ETV
189	91797 574 87 109 86 108 23 0.973 9.2933094623364 73.842976082293 333.42252771666
188	92371 643 87 109 86 108 23 -0.75592544551473 2.5574014024576 12.605686035912 28.89960852463
187	93014 642 86 109 85 108 24 1.3622276712907 14.109782622448 287.97419547677 3749.7249041042
183	93656 444 85 109 84 108 25 1013.4 1013.4 25335 25674489
182	94100 667 85 109 84 108 25 64.606680674421 2774.4273071429 39410.339836623 80447315.434897
vector 252 Scenario.node[50].veinsmobility speed ETV
vector 253 Scenario.node[50].veinsmobility acceleration ETV
vector 254 Scenario.node[50].veinsmobility co2emission ETV
vector 255 Scenario.node[51].veinsmobility posx ETV
vector 256 Scenario.node[51].veinsmobility posy ETV
51	95043 1526 32 112 31 111 81 0.973 12.921796533939 180.18699574064 947.51557067703
50	96569 1554 32 112 31 111 81 -4.338081273223 2.5997760717059 14.618698206777 137.89160274557
47	98123 1528 31 112 30 111 82 0 17.563406042359 276.83375647407 3528.4033210889
43	99651 2013 30 112 29 111 83 59.632292857143 1013.4 75324.787182791 73173353.61488
42	101664 2093 30 112 29 111 83 155.36422327368 2378.1077071429 121452.88962564 188208917.19665
vector 257 Scenario.node[51].veinsmobility speed ETV
vector 258 Scenario.node[51].veinsmobility acceleration ETV
vector 259 Scenario.node[51].veinsmobility co2emission ETV
vector 260 Scenario.node[52].veinsmobility posx ETV
vector 261 Scenario.node[52].veinsmobility posy ETV
vector 262 Scenario.node[52].veinsmobility speed ETV
vector 263 Scenario.node[52].veinsmobility acceleration ETV
vector 264 Scenario.node[52].veinsmobility co2emission ETV
196	104205 701 90 117 89 116 28 0.973 6.1229665175833 80.468237654433 306.08667825932
195	104906 791 90 117 89 116 28 -3.4126382259637 2.1049476268468 10.115442943112 40.977870909925
192	105697 787 89 117 88 116 29 1.7132014017319 12.191906766482 287.46605018363 3077.9944527421
191	106484 545 88 117 87 116 30 1013.4 1013.4 30402 30809386.8
190	107029 811 88 117 87 116 30 69.66878778854 2774.4273071429 46607.887977172 92676816.498999
vector 265 Scenario.node[53].veinsmobility posx ETV
vector 266 Scenario.node[53].veinsmobility posy ETV
vector 267 Scenario.node[53].veinsmobility speed ETV
206	107997 660 93 119 92 118 27 0.973 7.2379987563692 86.708385273723 385.47610620273
205	108657 764 93 119 92 118 27 -3.6738236490855 2.161120661092 10.302228860118 49.465332648712
202	109421 765 92 119 91 118 28 1.7891687938012 12.578346434278 289.97506405106 3208.0770136772
198	110186 532 91 119 90 118 29 1013.4 1013.4 29388.6 29782407.24
197	110718 789 91 119 90 118 29 44.674170856457 2774.4273071429 44184.709201655 87439216.930456
vector 268 Scenario.node[54].veinsmobility posx ETV
vector 269 Scenario.node[54].veinsmobility posy ETV
vector 270 Scenario.node[53].veinsmobility acceleration ETV
vector 271 Scenario.node[53].veinsmobility co2emission ETV
vector 272 Scenario.node[55].veinsmobility posx ETV
vector 273 Scenario.node[55].veinsmobility posy ETV
vector 274 Scenario.node[54].veinsmobility speed ETV
vector 275 Scenario.node[54].veinsmobility acceleration ETV
vector 276 Scenario.node[54].veinsmobility co2emission ETV
vector 277 Scenario.node[55].veinsmobility speed ETV
vector 278 Scenario.node[55].veinsmobility acceleration ETV
vector 279 Scenario.node[55].veinsmobility co2emission ETV
216	112178 724 96 123 95 122 28 0.973 5.4468636563846 71.995820391483 243.14030422669
215	112902 809 96 123 95 122 28 -0.98008117692079 1.8463759821374 9.4986425043068 22.294160932531
212	113711 795 95 123 94 122 29 1.7114885492483 11.661584906651 289.17694524027 3061.7069292065
208	114506 557 94 123 93 122 30 1013.4 1013.4 30402 30809386.8
207	115063 822 94 123 93 122 30 52.624973441092 2774.4273071429 46068.22191638 92188017.138865
vector 280 Scenario.node[56].veinsmobility posx ETV
vector 281 Scenario.node[56].veinsmobility posy ETV
vector 282 Scenario.node[56].veinsmobility speed ETV
228	116042 662 99 125 98 124 27 0.973 8.2612029636892 70.904108829179 282.90378518674
227	116704 788 99 125 98 124 27 -0.90550124048197 2.5710355418501 8.5163263321535 27.228694903109
222	117492 776 98 125 97 124 28 2.5965631975792 11.844221279524 290.80722063728 3142.0914800658
218	118268 544 97 125 96 124 29 1013.4 1013.4 29388.6 29782407.24
217	118812 803 97 125 96 124 29 36.384286384331 2774.4273071429 43135.562635191 84578629.537618
vector 283 Scenario.node[56].veinsmobility acceleration ETV
vector 284 Scenario.node[56].veinsmobility co2emission ETV
232	119734 633 101 126 100 125 26 0.973 7.595038684039 73.322687594355 299.50728791211
231	120367 752 101 126 100 125 26 -1.2401861771206 2.4188864906551 10.243107469607 30.22689095197
229	121119 752 100 126 99 125 27 0.53367135274965 13.737993432579 280.80212264557 3240.6767658968
224	121871 529 99 126 98 125 28 1013.4 1013.4 28375.2 28755427.68
223	122400 779 99 126 98 125 28 136.05435792788 2774.4273071429 44542.361125624 91233760.663388
vector 285 Scenario.node[57].veinsmobility posx ETV
vector 286 Scenario.node[57].veinsmobility posy ETV
vector 287 Scenario.node[57].veinsmobility speed ETV
vector 288 Scenario.node[57].veinsmobility acceleration ETV
vector 289 Scenario.node[57].veinsmobility co2emission ETV
244	123455 618 105 129 104 128 25 0.973 8.8855044674127 74.381598421039 332.15036032947
243	124073 725 105 129 104 128 25 -0.99761332531925 2.529958935664 10.727767869184 31.192771389586
242	124798 724 104 129 103 128 26 1.649531213427 12.589583568863 282.11787571227 3270.0130532529
238	125522 513 103 129 102 128 27 1013.4 1013.4 27361.8 27728448.12
237	126035 749 103 129 102 128 27 122.9469198598 2774.4273071429 42444.290695853 85235421.833829
vector 290 Scenario.node[58].veinsmobility posx ETV
vector 291 Scenario.node[58].veinsmobility posy ETV
vector 292 Scenario.node[58].veinsmobility speed ETV
vector 293 Scenario.node[58].veinsmobility acceleration ETV
vector 294 Scenario.node[58].veinsmobility co2emission ETV
vector 295 Scenario.node[59].veinsmobility posx ETV
vector 296 Scenario.node[59].veinsmobility posy ETV
249	127164 666 108 133 107 132 26 0.973 6.0860075123808 70.581579002966 239.36892365327
248	127830 755 108 133 107 132 26 -1.0575028684223 2.1501897323178 9.1913343763036 20.581316466948
247	128585 754 107 133 106 132 27 2.3686384078581 12.143130706093 284.04766608894 3154.889777349
246	129339 532 106 133 105 132 28 1013.4 1013.4 28375.2 28755427.68
245	129871 780 106 133 105 132 28 103.72248596958 2774.4273071429 43602.690420315 87155330.063375
vector 297 Scenario.node[59].veinsmobility speed ETV
vector 298 Scenario.node[59].veinsmobility acceleration ETV
vector 299 Scenario.node[59].veinsmobility co2emission ETV
254	130823 639 111 135 110 134 25 0.973 9.8290713570887 83.42203094899 404.70182486319
253	131462 721 111 135 110 134 25 -1.5369765731498 2.5578475476941 11.290379540095 36.309839842627
252	132183 724 110 135 109 134 26 2.423096384597 13.713475924692 289.10925982667 3402.1824470508
251	132907 513 109 135 108 134 27 1013.4 1013.4 27361.8 27728448.12
250	133420 753 109 135 108 134 27 53.299250696664 2774.4273071429 41012.961516227 81350203.887603
vector 300 Scenario.node[60].veinsmobility posx ETV
vector 301 Scenario.node[60].veinsmobility posy ETV
vector 302 Scenario.node[60].veinsmobility speed ETV
vector 303 Scenario.node[60].veinsmobility acceleration ETV
vector 304 Scenario.node[60].veinsmobility co2emission ETV
vector 305 Scenario.node[61].veinsmobility posx ETV
vector 306 Scenario.node[61].veinsmobility posy ETV
259	134553 667 114 139 113 138 26 0.973 7.7536433895745 68.355847633284 252.08411125447
258	135220 760 114 139 113 138 26 -0.64592928732745 2.1982716344995 10.038395929638 21.941752305616
257	135980 750 113 139 112 138 27 1.6710262941429 12.476943863229 288.98461166912 3315.4287153785
256	136730 532 112 139 111 138 28 1013.4 1013.4 28375.2 28755427.68
255	137262 781 112 139 111 138 28 54.540986738777 2774.4273071429 43395.450896259 87695536.370574
vector 307 Scenario.node[61].veinsmobility speed ETV
vector 308 Scenario.node[61].veinsmobility acceleration ETV
vector 309 Scenario.node[61].veinsmobility co2emission ETV
264	138215 639 117 141 116 140 25 0.973 6.6201286515551 72.209694283154 291.63753575447
263	138854 726 117 141 116 140 25 -1.3377788966741 2.5995559160132 9.3333032882949 26.891046802005
262	139580 725 116 141 115 140 26 2.5455732210772 12.790842526843 290.47514769315 3410.3184435519
261	140305 513 115 141 114 140 27 1013.4 1013.4 27361.8 27728448.12
260	140818 754 115 141 114 140 27 39.692373334248 2774.4273071429 40788.799895108 81096035.956611
vector 310 Scenario.node[62].veinsmobility posx ETV
vector 311 Scenario.node[62].veinsmobility posy ETV
vector 312 Scenario.node[62].veinsmobility speed ETV
271	141729 611 120 143 119 142 24 0.973 7.6563826341158 72.037259437975 308.70907086107
270	142340 702 120 143 119 142 24 -0.92687400826253 2.5574588068994 10.07658499865 27.284981406172
267	143042 698 119 143 118 142 25 2.4578145842534 13.150202772572 285.44122433803 3440.220310353
266	143740 494 118 143 117 142 26 1013.4 1013.4 26348.4 26701468.56
265	144234 723 118 143 117 142 26 89.83995823202 2774.4273071429 40166.479775433 80207334.509202
vector 313 Scenario.node[62].veinsmobility acceleration ETV
vector 314 Scenario.node[62].veinsmobility co2emission ETV
vector 315 Scenario.node[63].veinsmobility posx ETV
vector 316 Scenario.node[63].veinsmobility posy ETV
vector 317 Scenario.node[63].veinsmobility speed ETV
vector 318 Scenario.node[63].veinsmobility acceleration ETV
vector 319 Scenario.node[63].veinsmobility co2emission ETV
vector 320 Scenario.node[64].veinsmobility posx ETV
vector 321 Scenario.node[64].veinsmobility posy ETV
279	145456 663 123 148 122 147 26 0.973 7.2809069514252 71.811291405423 275.11266210395
278	146119 758 123 148 122 147 26 -0.93725749393925 2.2725860810839 9.2637477737546 25.024266306346
277	146877 752 122 148 121 147 27 2.3839608632959 12.244814497458 289.93539662257 3272.067713213
273	147629 532 121 148 120 147 28 1013.4 1013.4 28375.2 28755427.68
272	148161 784 121 148 120 147 28 45.069334945743 2774.4273071429 42472.601964623 84431595.640247
vector 322 Scenario.node[64].veinsmobility speed ETV
284	148998 599 126 149 125 148 24 0.973 10.697518014469 72.732050945372 340.04087842327
283	149597 695 126 149 125 148 24 -1.2837754305476 2.5935631721513 9.8194727596187 30.919729697713
282	150292 699 125 149 124 148 25 2.0778234191239 14.462258488668 280.31356428748 3356.3831728714
281	150991 494 124 149 123 148 26 1013.4 1013.4 26348.4 26701468.56
280	151485 725 124 149 123 148 26 140.92134139418 2774.4273071429 40201.812323175 80175687.927859
vector 323 Scenario.node[64].veinsmobility acceleration ETV
vector 324 Scenario.node[64].veinsmobility co2emission ETV
vector 325 Scenario.node[65].veinsmobility posx ETV
vector 326 Scenario.node[65].veinsmobility posy ETV
289	152433 561 129 151 128 150 23 0.973 10.548506636261 89.015466751005 552.92951855801
288	152994 659 129 151 128 150 23 -1.677162622569 2.5364306016592 11.069038031455 48.237153599147
287	153653 669 128 151 127 150 24 2.4507924202131 16.405053526166 284.52912298599 3630.1226334539
286	154322 475 127 151 126 150 25 1013.4 1013.4 25335 25674489
285	154797 696 127 151 126 150 25 98.926246750938 2774.4273071429 37926.543517781 75520218.160099
vector 327 Scenario.node[65].veinsmobility speed ETV
vector 328 Scenario.node[65].veinsmobility acceleration ETV
vector 329 Scenario.node[65].veinsmobility co2emission ETV
vector 330 Scenario.node[66].veinsmobility posx ETV
vector 331 Scenario.node[66].veinsmobility posy ETV
vector 332 Scenario.node[66].veinsmobility speed ETV
59	155822 2280 35 155 34 154 121 0.973 8.2604682691554 189.43107763309 543.21201844511
58	158102 2268 35 155 34 154 121 -4.4497808953333 2.4414596055634 10.491631239184 122.61356983446
57	160370 2212 34 155 33 154 122 0 13.006254359728 278.4288073711 2943.4481874117
53	162582 3082 33 155 32 154 123 59.632292857143 1013.4 112289.29597662 107514858.90306
52	165664 3179 33 155 32 154 123 139.47444016961 2378.1077071429 180229.66999163 276665212.07364
vector 333 Scenario.node[66].veinsmobility acceleration ETV
vector 334 Scenario.node[66].veinsmobility co2emission ETV
vector 335 Scenario.node[67].veinsmobility posx ETV
vector 336 Scenario.node[67].veinsmobility posy ETV
vector 337 Scenario.node[67].veinsmobility speed ETV
294	169119 701 132 158 131 157 27 0.973 7.8103401183885 80.450863899136 323.01429502279
293	169820 784 132 158 131 157 27 -4.1386254199861 2.2553975799354 9.9879114191257 43.471012166744
292	170604 782 131 158 130 157 28 2.2456410377286 12.536547644527 290.25351221855 3216.5801088952
291	171386 551 130 158 129 157 29 1013.4 1013.4 29388.6 29782407.24
290	171937 810 130 158 129 157 29 41.900290101152 2774.4273071429 44409.916368565 88088303.732672
vector 338 Scenario.node[67].veinsmobility acceleration ETV
vector 339 Scenario.node[67].veinsmobility co2emission ETV
vector 340 Scenario.node[68].veinsmobility posx ETV
vector 341 Scenario.node[68].veinsmobility posy ETV
vector 342 Scenario.node[69].veinsmobility posx ETV
vector 343 Scenario.node[69].veinsmobility posy ETV
vector 344 Scenario.node[68].veinsmobility speed ETV
vector 345 Scenario.node[68].veinsmobility acceleration ETV
vector 346 Scenario.node[68].veinsmobility co2emission ETV
vector 347 Scenario.node[69].veinsmobility speed ETV
299	173299 673 135 162 134 161 28 0.973 7.6345665900198 66.794723398526 241.6189047392
298	173972 825 135 162 134 161 28 -0.89635420374107 2.3779928722885 8.4971533873496 26.112565749401
297	174797 810 134 162 133 161 29 1.5022666953271 11.272680401537 282.17702866471 2895.0232534829
296	175607 570 133 162 132 161 30 1013.4 1013.4 30402 30809386.8
295	176177 839 133 162 132 161 30 122.35764237275 2774.4273071429 46161.784802098 91249780.111725
vector 348 Scenario.node[70].veinsmobility posx ETV
vector 349 Scenario.node[70].veinsmobility posy ETV
vector 350 Scenario.node[69].veinsmobility acceleration ETV
vector 351 Scenario.node[69].veinsmobility co2emission ETV
vector 352 Scenario.node[70].veinsmobility speed ETV
304	177292 656 138 164 137 163 27 0.973 9.0999703167254 78.629749405476 361.06147862425
303	177948 790 138 164 137 163 27 -1.3898666718708 2.4805990868248 8.961689881987 36.712647134721
302	178738 782 137 164 136 163 28 2.1610204150435 13.053284187191 282.56851173921 3015.5172193861
301	179520 551 136 164 135 163 29 1013.4 1013.4 29388.6 29782407.24
300	180071 809 136 164 135 163 29 118.4577159477 2774.4273071429 43938.595317168 86358372.228364
vector 353 Scenario.node[70].veinsmobility acceleration ETV
vector 354 Scenario.node[70].veinsmobility co2emission ETV
309	180999 665 141 166 140 165 26 0.973 8.4843782810581 85.358517868224 427.50844015719
308	181664 750 141 166 140 165 26 -2.3014258334012 2.2805588762276 9.5957877908057 45.163796439638
307	182414 754 140 166 139 165 27 2.5867336850148 13.93593101433 285.50121668959 3211.7877224694
306	183168 532 139 166 138 165 28 1013.4 1013.4 28375.2 28755427.68
305	183700 782 139 166 138 165 28 89.242318710949 2774.4273071429 41862.481454662 82238040.044564
vector 355 Scenario.node[71].veinsmobility posx ETV
vector 356 Scenario.node[71].veinsmobility posy ETV
314	184586 627 144 168 143 167 25 0.973 9.4682408365752 84.877075422601 425.64792365313
313	185213 718 144 168 143 167 25 -2.5517747774684 2.5643653451232 11.280855930446 42.101893598164
312	185931 723 143 168 142 167 26 1.9135779616656 13.914674666723 288.82828594622 3455.0039156876
311	186654 513 142 168 141 167 27 1013.4 1013.4 27361.8 27728448.12
310	187167 755 142 168 141 167 27 56.098292424207 2774.4273071429 40854.361007907 81755477.385829
vector 357 Scenario.node[71].veinsmobility speed ETV
319	187975 572 147 169 146 168 23 0.973 9.037926750426 74.276688509236 356.01315377557
318	188547 668 147 169 146 168 23 -0.98328164904378 2.4131737483433 11.868623260205 30.302520982732
317	189215 672 146 169 145 168 24 1.9961265102262 13.957978216308 278.7083690534 3469.380482438
316	189887 475 145 169 144 168 25 1013.4 1013.4 25335 25674489
315	190362 699 145 169 144 168 25 156.91218165926 2774.4273071429 39569.062574348 79682524.93977
vector 358 Scenario.node[71].veinsmobility acceleration ETV
vector 359 Scenario.node[71].veinsmobility co2emission ETV
vector 360 Scenario.node[72].veinsmobility posx ETV
vector 361 Scenario.node[72].veinsmobility posy ETV
vector 362 Scenario.node[72].veinsmobility speed ETV
324	191337 594 150 172 149 171 23 0.973 10.490596838935 77.421402617392 402.95581067469
323	191931 666 150 172 149 171 23 -1.2419952036813 2.5592913716799 11.448817812733 32.832483301084
322	192597 667 149 172 148 171 24 1.7977421472082 14.499194100488 287.89837989739 3765.4977654617
321	193264 475 148 172 147 171 25 1013.4 1013.4 25335 25674489
320	193739 698 148 172 147 171 25 65.361950060746 2774.4273071429 39536.667790576 81056834.178108
vector 363 Scenario.node[72].veinsmobility acceleration ETV
vector 364 Scenario.node[72].veinsmobility co2emission ETV
329	194556 533 153 173 152 172 21 0.973 9.4660967753854 77.663653766928 416.56053250344
328	195089 606 153 173 152 172 21 -1.2119086289049 2.1128936805297 11.810776051239 30.82717910616
327	195695 616 152 173 151 172 22 2.1513710729545 16.336888476486 278.11844214369 3870.6370787055
326	196311 437 151 173 150 172 23 1013.4 1013.4 23308.2 23620529.88
325	196748 641 151 173 150 172 23 162.78899139611 2774.4273071429 37399.252450534 77109076.40522
vector 365 Scenario.node[73].veinsmobility posx ETV
vector 366 Scenario.node[73].veinsmobility posy ETV
vector 367 Scenario.node[73].veinsmobility speed ETV
vector 368 Scenario.node[73].veinsmobility acceleration ETV
vector 369 Scenario.node[73].veinsmobility co2emission ETV
vector 370 Scenario.node[74].veinsmobility posx ETV
vector 371 Scenario.node[74].veinsmobility posy ETV
334	197769 564 156 177 155 176 22 0.973 9.9647641618973 77.396502641508 393.30122055314
333	198333 637 156 177 155 176 22 -0.83772530618733 2.1905479866313 12.047042734105 27.293620777868
332	198970 640 155 177 154 176 23 2.5279422958381 15.244680493789 288.43730999106 3923.6912490509
331	199610 456 154 177 153 176 24 1013.4 1013.4 24321.6 24647509.44
330	200066 670 154 177 153 176 24 59.993166962652 2774.4273071429 38105.98561577 78157520.510388
vector 372 Scenario.node[74].veinsmobility speed ETV
vector 373 Scenario.node[74].veinsmobility acceleration ETV
vector 374 Scenario.node[74].veinsmobility co2emission ETV
vector 375 Scenario.node[75].veinsmobility posx ETV
vector 376 Scenario.node[75].veinsmobility posy ETV
vector 377 Scenario.node[75].veinsmobility speed ETV
vector 378 Scenario.node[75].veinsmobility acceleration ETV
vector 379 Scenario.node[75].veinsmobility co2emission ETV
vector 380 Scenario.node[76].veinsmobility posx ETV
vector 381 Scenario.node[76].veinsmobility posy ETV
339	201288 628 159 183 158 182 25 0.973 8.0107809546344 71.764050972856 296.9960508786
338	201916 731 159 183 158 182 25 -0.92890805702191 2.4733121366473 10.152855230264 29.861918613695
337	202647 727 158 183 157 182 26 1.3741177733988 12.751321083588 284.54270920953 3323.8857409011
336	203374 513 157 183 156 182 27 1013.4 1013.4 27361.8 27728448.12
335	203887 753 157 183 156 182 27 98.79090176249 2774.4273071429 42117.754563069 84646336.527117
vector 382 Scenario.node[76].veinsmobility speed ETV
vector 383 Scenario.node[76].veinsmobility acceleration ETV
vector 384 Scenario.node[76].veinsmobility co2emission ETV
346	204812 592 162 185 161 184 24 0.973 8.5749649320028 81.124485991114 394.40862498335
345	205404 695 162 185 161 184 24 -1.1312845974844 2.2703659072286 12.306578860837 34.05303243552
344	206099 699 161 185 160 184 25 1.5272533117561 14.059422621862 289.83831625459 3628.7761184513
341	206798 494 160 185 159 184 26 1013.4 1013.4 26348.4 26701468.56
340	207292 727 160 185 159 184 26 46.036442637244 2774.4273071429 40399.934587996 82173379.708256
vector 385 Scenario.node[77].veinsmobility posx ETV
vector 386 Scenario.node[77].veinsmobility posy ETV
vector 387 Scenario.node[77].veinsmobility speed ETV
354	208176 591 165 187 164 186 23 0.973 9.0126186594806 73.867732760575 350.33944406929
353	208767 665 165 187 164 186 23 -0.7673824781552 2.5279653809266 12.242981565677 29.091393039696
352	209432 670 164 187 163 186 24 1.7227393800393 14.220793505575 286.39186050591 3689.8307350894
349	210102 475 163 187 162 186 25 1013.4 1013.4 25335 25674489
348	210577 700 163 187 162 186 25 80.369788630192 2774.4273071429 39358.589608047 79965367.524684
vector 388 Scenario.node[77].veinsmobility acceleration ETV
vector 389 Scenario.node[77].veinsmobility co2emission ETV
vector 390 Scenario.node[78].veinsmobility posx ETV
vector 391 Scenario.node[78].veinsmobility posy ETV
vector 392 Scenario.node[78].veinsmobility speed ETV
vector 393 Scenario.node[78].veinsmobility acceleration ETV
vector 394 Scenario.node[78].veinsmobility co2emission ETV
vector 395 Scenario.node[79].veinsmobility posx ETV
vector 396 Scenario.node[79].veinsmobility posy ETV
vector 397 Scenario.node[79].veinsmobility speed ETV
69	211829 2975 38 193 37 192 156 0.973 9.5467226060646 221.43924204547 583.15648904321
68	214804 2980 38 193 37 192 156 -4.5 2.5262731315568 10.473507185258 123.96961480109
65	217784 2875 37 193 36 192 157 0 12.61216868523 287.67675865073 2915.0224401543
63	220659 4025 36 193 35 192 158 59.632292857143 1013.4 142444.8188678 133514325.8776
62	224684 4105 36 193 35 192 158 47.347010089945 2378.1077071429 234178.81839729 361768593.3853
vector 398 Scenario.node[79].veinsmobility acceleration ETV
vector 399 Scenario.node[79].veinsmobility co2emission ETV
359	228908 637 170 194 169 193 25 0.973 10.307643535685 94.878011576884 517.89048507641
358	229545 706 170 194 169 193 25 -4.5 2.212812112039 11.525821374103 70.230913916489
357	230251 724 169 194 168 193 26 1.4043830795679 15.478850069998 281.00734751325 3351.0045781597
356	230975 513 168 194 167 193 27 1013.4 1013.4 27361.8 27728448.12
355	231488 755 168 194 167 193 27 134.00992245496 2774.4273071429 42381.342318985 84629458.122356
vector 400 Scenario.node[80].veinsmobility posx ETV
vector 401 Scenario.node[80].veinsmobility posy ETV
vector 402 Scenario.node[80].veinsmobility speed ETV
vector 403 Scenario.node[80].veinsmobility acceleration ETV
vector 404 Scenario.node[80].veinsmobility co2emission ETV
364	232519 625 173 197 172 196 25 0.973 7.8843615696548 70.167915213173 289.67108931437
363	233144 729 173 197 172 196 25 -0.98959445564542 2.478106039227 9.8730640469274 27.19485811925
362	233873 723 172 197 171 196 26 2.074061627849 12.432547817953 281.82563672864 3226.5755424785
361	234596 513 171 197 170 196 27 1013.4 1013.4 27361.8 27728448.12
360	235109 751 171 197 170 196 27 125.85818374046 2774.4273071429 42152.262372562 84010231.786622
vector 405 Scenario.node[81].veinsmobility posx ETV
vector 406 Scenario.node[81].veinsmobility posy ETV
vector 407 Scenario.node[82].veinsmobility posx ETV
vector 408 Scenario.node[82].veinsmobility posy ETV
vector 409 Scenario.node[81].veinsmobility speed ETV
vector 410 Scenario.node[82].veinsmobility speed ETV
369	236174 608 176 199 175 198 24 0.973 9.6579106739206 80.239069138447 434.36382512312
368	236782 701 176 199 175 198 24 -1.0153948842322 2.5208144087577 12.84499177056 36.593362457594
367	237483 699 175 199 174 198 25 1.6730006187223 14.517992389282 287.40965583628 3545.0559899376
366	238182 494 174 199 173 198 26 1013.4 1013.4 26348.4 26701468.56
365	238676 724 174 199 173 198 26 70.230584248731 2774.4273071429 39954.685224515 80004148.920866
vector 411 Scenario.node[81].veinsmobility acceleration ETV
vector 412 Scenario.node[81].veinsmobility co2emission ETV
vector 413 Scenario.node[82].veinsmobility acceleration ETV
vector 414 Scenario.node[82].veinsmobility co2emission ETV
374	239638 555 179 200 178 199 22 0.973 7.2546872639901 75.096724305337 367.96570076864
373	240193 639 179 200 178 199 22 -0.8373859983323 2.5120353495935 12.692136026465 30.567053625267
372	240832 639 178 200 177 199 23 1.6775194089394 14.916005192756 277.19429855461 3622.9700230198
371	241471 456 177 200 176 199 24 1013.4 1013.4 24321.6 24647509.44
370	241927 668 177 200 176 199 24 171.9952438203 2774.4273071429 38618.332359833 78643946.076624
vector 415 Scenario.node[83].veinsmobility posx ETV
vector 416 Scenario.node[83].veinsmobility posy ETV
vector 417 Scenario.node[83].veinsmobility speed ETV
379	242752 547 182 202 181 201 21 0.973 8.1161432595205 74.425347785422 365.37877645402
378	243299 607 182 202 181 201 21 -1.1181801013933 2.2679489330621 12.624591925556 29.264854997899
377	243906 615 181 202 180 201 22 1.8464633757947 15.442050680636 278.24869134596 3849.8302709664
376	244521 437 180 202 179 201 23 1013.4 1013.4 23308.2 23620529.88
375	244958 643 180 202 179 201 23 161.49145814667 2774.4273071429 37393.893873228 76837271.530939
vector 418 Scenario.node[83].veinsmobility acceleration ETV
vector 419 Scenario.node[83].veinsmobility co2emission ETV
vector 420 Scenario.node[84].veinsmobility posx ETV
vector 421 Scenario.node[84].veinsmobility posy ETV
vector 422 Scenario.node[84].veinsmobility speed ETV
384	245877 537 185 205 184 204 21 0.973 9.1862487493891 77.761916083802 390.58649368792
383	246414 609 185 205 184 204 21 -0.645806642971 2.5397019344615 12.996028797622 29.242104435996
382	247023 614 184 205 183 204 22 2.1306896949187 16.040377230654 291.50169521471 4208.3437100164
381	247637 437 183 205 182 204 23 1013.4 1013.4 23308.2 23620529.88
380	248074 641 183 205 182 204 23 29.465980249284 2774.4273071429 36235.484212003 74604890.363602
vector 423 Scenario.node[84].veinsmobility acceleration ETV
vector 424 Scenario.node[84].veinsmobility co2emission ETV
vector 425 Scenario.node[85].veinsmobility posx ETV
vector 426 Scenario.node[85].veinsmobility posy ETV
vector 427 Scenario.node[85].veinsmobility speed ETV
vector 428 Scenario.node[85].veinsmobility acceleration ETV
vector 429 Scenario.node[85].veinsmobility co2emission ETV
vector 430 Scenario.node[86].veinsmobility posx ETV
vector 431 Scenario.node[86].veinsmobility posy ETV
vector 432 Scenario.node[86].veinsmobility speed ETV
74	249267 3299 41 211 40 210 171 0.973 9.9235383358226 249.26517012767 686.457572287
73	252566 3354 41 211 40 210 171 -4.3213666671244 2.5968712079106 11.652272161108 141.96293284137
72	255920 3195 40 211 39 210 172 0 13.650099752902 279.94340858755 2858.8594627683
71	259115 4405 39 211 38 210 173 59.632292857143 1013.4 150689.43093485 136434476.45583
70	263520 4505 39 211 38 210 173 124.38609103711 2378.1077071429 263858.99240979 415839829.73374
vector 433 Scenario.node[86].veinsmobility acceleration ETV
vector 434 Scenario.node[86].veinsmobility co2emission ETV
vector 435 Scenario.node[87].veinsmobility posx ETV
vector 436 Scenario.node[87].veinsmobility posy ETV
vector 437 Scenario.node[87].veinsmobility speed ETV
389	268301 664 188 214 187 213 27 0.973 6.0500902547109 78.270489232421 309.61885272857
388	268965 780 188 214 187 213 27 -2.2714996432727 2.3103978296975 8.7902452504582 35.825420144562
387	269745 781 187 214 186 213 28 2.1917988455622 12.150960085596 283.85233332828 3058.9343273314
386	270526 551 186 214 185 213 29 1013.4 1013.4 29388.6 29782407.24
385	271077 808 186 214 185 213 29 105.66837697893 2774.4273071429 45134.459368195 89640360.995355
vector 438 Scenario.node[87].veinsmobility acceleration ETV
vector 439 Scenario.node[87].veinsmobility co2emission ETV
vector 440 Scenario.node[88].veinsmobility posx ETV
vector 441 Scenario.node[88].veinsmobility posy ETV
394	272108 668 191 216 190 215 26 0.973 8.3162282706333 85.775023744216 395.14893737589
393	272776 749 191 216 190 215 26 -2.3732833003364 2.302740725386 10.339871642202 43.827316524636
392	273525 753 190 216 189 215 27 1.7191337297903 14.742265085466 285.50373117498 3236.8946665364
391	274278 532 189 216 188 215 28 1013.4 1013.4 28375.2 28755427.68
390	274810 781 189 216 188 215 28 89.217269587043 2774.4273071429 42802.758615417 84853101.67862
vector 442 Scenario.node[89].veinsmobility posx ETV
vector 443 Scenario.node[89].veinsmobility posy ETV
vector 444 Scenario.node[88].veinsmobility speed ETV
vector 445 Scenario.node[88].veinsmobility acceleration ETV
vector 446 Scenario.node[88].veinsmobility co2emission ETV
vector 447 Scenario.node[89].veinsmobility speed ETV
vector 448 Scenario.node[90].veinsmobility posx ETV
vector 449 Scenario.node[90].veinsmobility posy ETV
vector 450 Scenario.node[89].veinsmobility acceleration ETV
vector 451 Scenario.node[89].veinsmobility co2emission ETV
399	276143 646 194 219 193 218 26 0.973 7.6067809464638 74.682871126447 312.87094122233
398	276789 756 194 219 193 218 26 -1.0609444201924 2.4500042724889 10.540735842309 29.704784761436
397	277545 753 193 219 192 218 27 1.8380514085526 12.457459033092 288.53877495248 3259.2784949756
396	278298 532 192 219 191 218 28 1013.4 1013.4 28375.2 28755427.68
395	278830 779 192 219 191 218 28 58.982380264503 2774.4273071429 42726.48552675 84955921.739074
vector 452 Scenario.node[90].veinsmobility speed ETV
404	279662 599 197 220 196 219 24 0.973 10.016747871792 76.44659208157 365.12611971287
403	280261 697 197 220 196 219 24 -1.3398790324557 2.3097104952438 10.821042878045 31.438044327037
402	280958 700 196 220 195 219 25 1.5850181195885 14.671104070019 278.6640303895 3392.6547770371
401	281658 494 195 220 194 219 26 1013.4 1013.4 26348.4 26701468.56
400	282152 723 195 220 194 219 26 157.353880262 2774.4273071429 41352.026940415 84045364.674016
vector 453 Scenario.node[91].veinsmobility posx ETV
vector 454 Scenario.node[91].veinsmobility posy ETV
vector 455 Scenario.node[90].veinsmobility acceleration ETV
vector 456 Scenario.node[90].veinsmobility co2emission ETV
vector 457 Scenario.node[91].veinsmobility speed ETV
vector 458 Scenario.node[91].veinsmobility acceleration ETV
vector 459 Scenario.node[91].veinsmobility co2emission ETV
412	283270 599 200 223 199 222 24 0.973 7.8152309743403 71.08635071375 315.15874209287
411	283869 694 200 223 199 222 24 -0.69236164069735 2.5620007993421 10.346331730452 25.399612668267
409	284563 697 199 223 198 222 25 2.3829082790297 13.464218970891 285.5083568018 3506.8614857558
406	285260 494 198 223 197 222 26 1013.4 1013.4 26348.4 26701468.56
405	285754 727 198 223 197 222 26 89.171189423064 2774.4273071429 40945.239273046 82951480.939483
vector 460 Scenario.node[92].veinsmobility posx ETV
vector 461 Scenario.node[92].veinsmobility posy ETV
419	286585 569 203 225 202 224 23 0.973 12.207302908853 87.772502796354 565.35169668945
418	287154 665 203 225 202 224 23 -1.7557949312295 2.5526733112521 12.945870712521 45.384458092199
417	287819 668 202 225 201 224 24 1.4662150423741 16.625871098391 290.3890457562 3854.9874931367
416	288487 475 201 225 200 224 25 1013.4 1013.4 25335 25674489
415	288962 696 201 225 200 224 25 40.55011467996 2774.4273071429 38753.588367266 79115936.119215
vector 462 Scenario.node[92].veinsmobility speed ETV
vector 463 Scenario.node[92].veinsmobility acceleration ETV
vector 464 Scenario.node[92].veinsmobility co2emission ETV
vector 465 Scenario.node[93].veinsmobility posx ETV
vector 466 Scenario.node[93].veinsmobility posy ETV
vector 467 Scenario.node[93].veinsmobility speed ETV
424	289987 612 206 229 205 228 24 0.973 8.7639511629995 68.401285920256 298.38787395715
423	290599 699 206 229 205 228 24 -0.67713650197256 2.4685813107295 10.717930734475 23.554118306587
422	291298 699 205 229 204 228 25 2.0087679130258 13.796392292009 287.00172980538 3580.2274741273
421	291997 494 204 229 203 228 26 1013.4 1013.4 26348.4 26701468.56
420	292491 725 204 229 203 228 26 74.294314230885 2774.4273071429 41059.675080759 83943998.761689
vector 468 Scenario.node[93].veinsmobility acceleration ETV
vector 469 Scenario.node[93].veinsmobility co2emission ETV
429	293335 546 209 230 208 229 22 0.973 8.4350982072129 78.301824559729 430.15403050804
428	293881 636 209 230 208 229 22 -1.2741241304173 2.5946380711859 10.56842033225 37.473287177958
427	294517 643 208 230 207 229 23 1.9823406310752 15.409726583625 277.94713792661 3649.3887085443
426	295160 456 207 230 206 229 24 1013.4 1013.4 24321.6 24647509.44
425	295616 670 207 230 206 229 24 164.49551177065 2774.4273071429 38301.046501151 77865536.36085
vector 470 Scenario.node[94].veinsmobility posx ETV
vector 471 Scenario.node[94].veinsmobility posy ETV
vector 472 Scenario.node[94].veinsmobility speed ETV
vector 473 Scenario.node[94].veinsmobility acceleration ETV
vector 474 Scenario.node[94].veinsmobility co2emission ETV
vector 475 Scenario.node[95].veinsmobility posx ETV
vector 476 Scenario.node[95].veinsmobility posy ETV
vector 477 Scenario.node[95].veinsmobility speed ETV
434	296719 626 212 235 211 234 24 0.973 6.7498250562248 69.409359952273 269.95412686159
433	297345 700 212 235 211 234 24 -0.93900301465765 2.5773436650867 10.854344714574 23.403069091039
432	298045 696 211 235 210 234 25 2.0737345520174 13.498031504849 287.86449042121 3532.5081079287
431	298741 494 210 235 209 234 26 1013.4 1013.4 26348.4 26701468.56
430	299235 726 210 235 209 234 26 65.699554601834 2774.4273071429 40439.314560594 81609996.464412
vector 478 Scenario.node[95].veinsmobility acceleration ETV
vector 479 Scenario.node[95].veinsmobility co2emission ETV
vector 480 Scenario.node[96].veinsmobility posx ETV
vector 481 Scenario.node[96].veinsmobility posy ETV
vector 482 Scenario.node[96].veinsmobility speed ETV
439	300237 601 215 238 214 237 24 0.973 6.4447136300243 70.508705039402 284.54377923335
438	300838 700 215 238 214 237 24 -0.67089417588431 1.9395129748154 10.338226438284 22.540338101091
437	301538 698 214 238 213 237 25 2.34882097675 13.785814178239 291.83621657625 3642.7569107738
436	302236 494 213 238 212 237 26 1013.4 1013.4 26348.4 26701468.56
435	302730 726 213 238 212 237 26 26.133502340018 2774.4273071429 40180.886854321 81415906.773652
vector 483 Scenario.node[96].veinsmobility acceleration ETV
vector 484 Scenario.node[96].veinsmobility co2emission ETV
446	303575 556 218 239 217 238 22 0.973 8.4107256215422 71.269994107129 332.04023077248
445	304131 639 218 239 217 238 22 -0.84123040526675 2.1969226646237 10.639172772463 27.138545647883
444	304770 644 217 239 216 238 23 2.4421967662638 14.558144747429 280.80397982747 3673.8077763711
441	305414 456 216 239 215 238 24 1013.4 1013.4 24321.6 24647509.44
440	305870 670 216 239 215 238 24 136.03585681442 2774.4273071429 37973.295848153 76799552.097735
vector 485 Scenario.node[97].veinsmobility posx ETV
vector 486 Scenario.node[97].veinsmobility posy ETV
vector 487 Scenario.node[97].veinsmobility speed ETV
456	306697 535 221 241 220 240 21 0.973 8.6875766570374 77.433830356527 392.68417201583
455	307232 606 221 241 220 240 21 -1.1369778826478 2.5914739454631 12.253228946304 29.20043757507
452	307838 612 220 241 219 240 22 2.5915062114364 15.59496429345 283.88401720669 3960.9153197038
449	308450 437 219 241 218 240 23 1013.4 1013.4 23308.2 23620529.88
448	308887 642 219 241 218 240 23 105.35274444532 2774.4273071429 36634.204164422 74862359.689743
vector 488 Scenario.node[97].veinsmobility acceleration ETV
vector 489 Scenario.node[97].veinsmobility co2emission ETV
vector 490 Scenario.node[98].veinsmobility posx ETV
vector 491 Scenario.node[98].veinsmobility posy ETV
459	309752 535 223 243 222 242 21 0.973 10.019321953413 82.120487522502 461.37786745011
458	310287 602 223 243 222 242 21 -1.0416977551766 2.5548092490062 14.486724365454 34.834789601512
457	310889 611 222 243 221 242 22 0.67459553217947 16.303270550685 278.05997089367 4072.0974394268
454	311500 437 221 243 220 242 23 1013.4 1013.4 23308.2 23620529.88
453	311937 642 221 243 220 242 23 163.37147781229 2774.4273071429 39071.918059409 82968760.507633
vector 492 Scenario.node[98].veinsmobility speed ETV
vector 493 Scenario.node[98].veinsmobility acceleration ETV
vector 494 Scenario.node[98].veinsmobility co2emission ETV
vector 495 Scenario.node[99].veinsmobility posx ETV
vector 496 Scenario.node[99].veinsmobility posy ETV
vector 497 Scenario.node[99].veinsmobility speed ETV
464	312908 565 227 247 226 246 21 0.973 10.654728983063 80.645062995735 432.01746690938
463	313473 607 227 247 226 246 21 -0.97590723589528 2.5253650841769 14.373455082993 31.06674905572
462	314080 616 226 247 225 246 22 1.5102370293811 16.327934796638 285.33582954806 4148.1196952959
461	314696 437 225 247 224 246 23 1013.4 1013.4 23308.2 23620529.88
460	315133 640 225 247 224 246 23 90.889893601492 2774.4273071429 37687.431708955 78799794.075185
vector 498 Scenario.node[99].veinsmobility acceleration ETV
vector 499 Scenario.node[99].veinsmobility co2emission ETV
vector 500 Scenario.node[100].veinsmobility posx ETV
vector 501 Scenario.node[100].veinsmobility posy ETV
vector 502 Scenario.node[100].veinsmobility speed ETV
vector 503 Scenario.node[100].veinsmobility acceleration ETV
vector 504 Scenario.node[100].veinsmobility co2emission ETV
vector 505 Scenario.node[101].veinsmobility posx ETV
vector 506 Scenario.node[101].veinsmobility posy ETV
vector 507 Scenario.node[101].veinsmobility speed ETV
79	316333 4015 44 253 43 252 210 0.973 9.7239073670722 293.79609144729 774.58839290775
78	320348 4078 44 253 43 252 210 -4.4549238373729 2.5489337064093 13.558526664422 153.16463166133
77	324426 3891 43 253 42 252 211 0 14.416482524924 283.87366780681 2934.9083790732
76	328317 5504 42 253 41 252 212 59.632292857143 1013.4 182410.38255046 162843565.47305
75	333821 5600 42 253 41 252 212 85.233129427684 2378.1077071429 327126.88566161 519393631.41596
vector 508 Scenario.node[101].veinsmobility acceleration ETV
vector 509 Scenario.node[101].veinsmobility co2emission ETV
vector 510 Scenario.node[102].veinsmobility posx ETV
vector 511 Scenario.node[102].veinsmobility posy ETV
469	339648 644 230 255 229 254 26 0.973 9.1120546878383 86.482478497298 422.46000179718
468	340292 754 230 255 229 254 26 -3.9045643832569 2.3418079091469 10.479447293229 56.39909480846
467	341046 754 229 255 228 254 27 1.8506015321938 13.26037496351 280.01268589113 3176.5291815555
466	341800 532 228 255 227 254 28 1013.4 1013.4 28375.2 28755427.68
465	342332 778 228 255 227 254 28 143.91867048731 2774.4273071429 44642.994151432 89289459.885901
vector 512 Scenario.node[102].veinsmobility speed ETV
vector 513 Scenario.node[102].veinsmobility acceleration ETV
vector 514 Scenario.node[102].veinsmobility co2emission ETV
474	343285 640 233 257 232 256 25 0.973 9.1315502027065 93.915348447158 511.58158222728
473	343925 719 233 257 232 256 25 -3.8963670776152 2.1753008789302 12.189183104965 60.160676182689
472	344644 728 232 257 231 256 26 1.3003079382936 15.640223959941 284.02673102007 3436.1280903203
471	345372 513 231 257 230 256 27 1013.4 1013.4 27361.8 27728448.12
470	345885 754 231 257 230 256 27 103.93103963031 2774.4273071429 42855.341760861 87062175.09028
vector 515 Scenario.node[103].veinsmobility posx ETV
vector 516 Scenario.node[103].veinsmobility posy ETV
vector 517 Scenario.node[104].veinsmobility posx ETV
vector 518 Scenario.node[104].veinsmobility posy ETV
vector 519 Scenario.node[103].veinsmobility speed ETV
479	346905 610 236 259 235 258 24 0.973 8.8915195884401 88.728841034821 504.67116716355
478	347515 690 236 259 235 258 24 -1.9445096617818 2.4708610619651 12.154601339127 49.471123183578
477	348205 696 235 259 234 258 25 1.194922245531 13.982737265902 287.07707372639 3581.3249645139
476	348901 494 234 259 233 258 26 1013.4 1013.4 26348.4 26701468.56
475	349395 725 234 259 233 258 26 73.543743471562 2774.4273071429 40693.548148947 82680025.119883
vector 520 Scenario.node[103].veinsmobility acceleration ETV
vector 521 Scenario.node[103].veinsmobility co2emission ETV
vector 522 Scenario.node[104].veinsmobility speed ETV
484	350295 535 239 260 238 259 22 0.973 10.701881141882 88.932593842255 576.02271924064
483	350830 630 239 260 238 259 22 -1.9204467053206 2.5439960296964 11.155149709112 49.223405640283
482	351460 643 238 260 237 259 23 2.0343628384406 15.859939366082 277.63985933553 3692.1393158952
481	352103 456 237 260 236 259 24 1013.4 1013.4 24321.6 24647509.44
480	352559 669 237 260 236 259 24 167.55659914658 2774.4273071429 38624.412380394 79105249.550808
vector 523 Scenario.node[105].veinsmobility posx ETV
vector 524 Scenario.node[105].veinsmobility posy ETV
vector 525 Scenario.node[104].veinsmobility acceleration ETV
vector 526 Scenario.node[104].veinsmobility co2emission ETV
vector 527 Scenario.node[105].veinsmobility speed ETV
vector 528 Scenario.node[105].veinsmobility acceleration ETV
vector 529 Scenario.node[105].veinsmobility co2emission ETV
vector 530 Scenario.node[106].veinsmobility posx ETV
vector 531 Scenario.node[106].veinsmobility posy ETV
vector 532 Scenario.node[106].veinsmobility speed ETV
vector 533 Scenario.node[106].veinsmobility acceleration ETV
vector 534 Scenario.node[106].veinsmobility co2emission ETV
vector 535 Scenario.node[107].veinsmobility posx ETV
vector 536 Scenario.node[107].veinsmobility posy ETV
vector 537 Scenario.node[107].veinsmobility speed ETV
489	354071 674 242 268 241 267 27 0.973 6.7721635352978 73.565507073513 269.95325162814
488	354745 783 242 268 241 267 27 -1.1017368884059 2.451554712723 9.4634665168143 24.568904870625
487	355528 784 241 268 240 267 28 2.2587893569143 12.055530707936 291.52276084977 3193.1343908891
486	356312 551 240 268 239 267 29 1013.4 1013.4 29388.6 29782407.24
485	356863 808 240 268 239 267 29 29.256125897514 2774.4273071429 43947.165978201 87417050.101105
vector 538 Scenario.node[107].veinsmobility acceleration ETV
vector 539 Scenario.node[107].veinsmobility co2emission ETV
494	357792 649 245 269 244 268 25 0.973 7.2648938391848 75.661630738951 306.64208185077
493	358441 722 245 269 244 268 25 -1.428064418741 2.4981900301762 10.220425420678 28.711690368751
492	359163 727 244 269 243 268 26 1.6581617379095 14.320858141338 281.54479384568 3325.9232583321
491	359890 513 243 269 242 268 27 1013.4 1013.4 27361.8 27728448.12
490	360403 750 243 269 242 268 27 128.65592048029 2774.4273071429 42331.305758323 85657500.513158
vector 540 Scenario.node[108].veinsmobility posx ETV
vector 541 Scenario.node[108].veinsmobility posy ETV
vector 542 Scenario.node[108].veinsmobility speed ETV
499	361313 600 248 271 247 270 24 0.973 9.4368585643037 87.732578761513 481.56410739363
498	361913 694 248 271 247 270 24 -1.6285727572749 2.5773006394506 12.294320024832 44.267259594466
497	362607 698 247 271 246 270 25 1.9819222732979 14.361771239396 286.14913729501 3497.0658050955
496	363305 494 246 271 245 270 26 1013.4 1013.4 26348.4 26701468.56
495	363799 726 246 271 245 270 26 82.787779919813 2774.4273071429 39427.881717284 78166318.198141
vector 543 Scenario.node[108].veinsmobility acceleration ETV
vector 544 Scenario.node[108].veinsmobility co2emission ETV
vector 545 Scenario.node[109].veinsmobility posx ETV
vector 546 Scenario.node[109].veinsmobility posy ETV
vector 547 Scenario.node[109].veinsmobility speed ETV
vector 548 Scenario.node[109].veinsmobility acceleration ETV
vector 549 Scenario.node[109].veinsmobility co2emission ETV
504	364927 630 251 275 250 274 25 0.973 7.9834348165225 72.973544215899 306.46734289046
503	365557 729 251 275 250 274 25 -1.2164683131268 2.4342916945228 9.3728820985918 29.961820538438
502	366286 724 250 275 249 274 26 2.0848816250684 12.490394380762 281.18569733876 3223.1370793984
501	367010 513 249 275 248 274 27 1013.4 1013.4 27361.8 27728448.12
500	367523 752 249 275 248 274 27 132.23321423252 2774.4273071429 41975.331933744 83617421.491047
vector 550 Scenario.node[110].veinsmobility posx ETV
vector 551 Scenario.node[110].veinsmobility posy ETV
vector 552 Scenario.node[110].veinsmobility speed ETV
509	368435 601 254 277 253 276 24 0.973 7.7755364862745 71.412280495598 298.75237846293
508	369036 698 254 277 253 276 24 -1.1506211990723 2.5890711884713 10.111866972517 25.992711277891
507	369734 700 253 277 252 276 25 2.0522740875836 13.279033907937 280.98944737279 3393.8987958801
506	370434 494 252 277 251 276 26 1013.4 1013.4 26348.4 26701468.56
505	370928 727 252 277 251 276 26 134.18824237568 2774.4273071429 41351.94497914 83719536.624413
vector 553 Scenario.node[110].veinsmobility acceleration ETV
vector 554 Scenario.node[110].veinsmobility co2emission ETV
vector 555 Scenario.node[111].veinsmobility posx ETV
vector 556 Scenario.node[111].veinsmobility posy ETV
514	371882 561 257 279 256 278 23 0.973 10.548320636604 85.470380595305 497.50320682963
513	372443 666 257 279 256 278 23 -1.9239083107323 2.4297381136799 12.331388383129 41.719569468822
512	373109 672 256 279 255 278 24 2.1201816259185 14.898379761684 285.50776023761 3651.0842048965
511	373781 475 255 279 254 278 25 1013.4 1013.4 25335 25674489
510	374256 700 255 279 254 278 25 89.177132352926 2774.4273071429 38846.354059429 78366705.348128
vector 557 Scenario.node[111].veinsmobility speed ETV
vector 558 Scenario.node[111].veinsmobility acceleration ETV
vector 559 Scenario.node[111].veinsmobility co2emission ETV
vector 560 Scenario.node[112].veinsmobility posx ETV
vector 561 Scenario.node[112].veinsmobility posy ETV
521	375237 591 260 282 259 281 23 0.973 7.0501958365654 69.808077452927 301.77750205568
520	375828 675 260 282 259 281 23 -0.61212513446808 2.2791807824979 11.507420487998 24.90428963502
519	376503 668 259 282 258 281 24 2.1062062940095 13.613626782008 279.67322818234 3490.6422927603
516	377171 475 258 282 257 281 25 1013.4 1013.4 25335 25674489
515	377646 700 258 282 257 281 25 147.30032393524 2774.4273071429 39862.488668323 80507785.348789
vector 562 Scenario.node[112].veinsmobility speed ETV
vector 563 Scenario.node[113].veinsmobility posx ETV
vector 564 Scenario.node[113].veinsmobility posy ETV
vector 565 Scenario.node[112].veinsmobility acceleration ETV
vector 566 Scenario.node[112].veinsmobility co2emission ETV
529	378627 556 263 284 262 283 22 0.973 11.960828058932 88.565582216941 569.08032826155
528	379183 631 263 284 262 283 22 -1.721963781853 2.5897125128657 14.14371487588 40.96571346383
527	379814 642 262 284 261 283 23 1.7970254667336 16.117003456871 284.49864062784 3898.00387499
524	380456 456 261 284 260 283 24 1013.4 1013.4 24321.6 24647509.44
523	380912 667 261 284 260 283 24 99.229909825528 2774.4273071429 38428.617101678 79247601.236687
vector 567 Scenario.node[113].veinsmobility speed ETV
vector 568 Scenario.node[113].veinsmobility acceleration ETV
vector 569 Scenario.node[113].veinsmobility co2emission ETV
vector 570 Scenario.node[114].veinsmobility posx ETV
vector 571 Scenario.node[114].veinsmobility posy ETV
534	381860 581 266 288 265 287 23 0.973 10.034524593258 72.095540434473 344.63417900355
533	382441 669 266 288 265 287 23 -0.61469348457176 2.5091330504045 10.966704790673 26.991075056838
532	383110 668 265 288 264 287 24 2.5433849175926 13.976343495452 289.57622935828 3732.9203904471
531	383778 475 264 288 263 287 25 1013.4 1013.4 25335 25674489
530	384253 695 264 288 263 287 25 48.647333577753 2774.4273071429 38655.059453441 78046035.902305
vector 572 Scenario.node[114].veinsmobility speed ETV
vector 573 Scenario.node[114].veinsmobility acceleration ETV
vector 574 Scenario.node[114].veinsmobility co2emission ETV
vector 575 Scenario.node[115].veinsmobility posx ETV
vector 576 Scenario.node[115].veinsmobility posy ETV
vector 577 Scenario.node[115].veinsmobility speed ETV
vector 578 Scenario.node[115].veinsmobility acceleration ETV
vector 579 Scenario.node[115].veinsmobility co2emission ETV
539	385404 646 269 293 268 292 25 0.973 9.0483141110484 73.131168405216 310.23036489547
538	386050 731 269 293 268 292 25 -1.1910421701614 2.3898837501649 10.759254164132 28.284715293992
537	386781 722 268 293 267 292 26 1.420264970581 13.21377597223 291.440563824 3520.9779692488
536	387503 513 267 293 266 292 27 1013.4 1013.4 27361.8 27728448.12
535	388016 755 267 293 266 292 27 30.074966797004 2774.4273071429 41729.387111824 84612253.300547
vector 580 Scenario.node[116].veinsmobility posx ETV
vector 581 Scenario.node[116].veinsmobility posy ETV
vector 582 Scenario.node[116].veinsmobility speed ETV
vector 583 Scenario.node[116].veinsmobility acceleration ETV
vector 584 Scenario.node[116].veinsmobility co2emission ETV
544	389052 627 272 296 271 295 25 0.973 7.785648889514 72.391747330333 296.023455746
543	389679 729 272 296 271 295 25 -0.93181349500082 2.1874665342737 10.68508313255 25.55753135334
542	390408 726 271 296 270 295 26 1.7361477072584 13.015057688729 281.30176968676 3285.8121329531
541	391134 513 270 296 269 295 27 1013.4 1013.4 27361.8 27728448.12
540	391647 752 270 296 269 295 27 131.07690979261 2774.4273071429 43011.624870264 87254600.132902
vector 585 Scenario.node[117].veinsmobility posx ETV
vector 586 Scenario.node[117].veinsmobility posy ETV
vector 587 Scenario.node[117].veinsmobility speed ETV
549	392559 601 275 298 274 297 24 0.973 9.1282355276517 82.544028722479 419.57434320465
548	393160 696 275 298 274 297 24 -1.7033562389324 2.5924080451019 11.344396507976 37.922913656855
547	393856 700 274 298 273 297 25 2.3918620931577 13.736258601134 285.89941955445 3460.7003060384
546	394556 494 273 298 272 297 26 1013.4 1013.4 26348.4 26701468.56
545	395050 723 273 298 272 297 26 85.275450214286 2774.4273071429 39922.7014029 79315604.703325
vector 588 Scenario.node[117].veinsmobility acceleration ETV
vector 589 Scenario.node[117].veinsmobility co2emission ETV
vector 590 Scenario.node[118].veinsmobility posx ETV
vector 591 Scenario.node[118].veinsmobility posy ETV
554	396000 593 278 300 277 299 23 0.973 6.6264573214571 73.329979024518 306.17285245763
553	396593 664 278 300 277 299 23 -1.136732717813 2.4455388958799 11.376757667626 28.870459993114
552	397257 670 277 300 276 299 24 1.3665602568071 13.826751803064 278.4794676027 3497.2862210966
551	397927 475 276 300 275 299 25 1013.4 1013.4 25335 25674489
550	398402 695 276 300 275 299 25 159.19248156104 2774.4273071429 40335.02727293 82161988.923242
vector 592 Scenario.node[118].veinsmobility speed ETV
vector 593 Scenario.node[118].veinsmobility acceleration ETV
vector 594 Scenario.node[118].veinsmobility co2emission ETV
vector 595 Scenario.node[119].veinsmobility posx ETV
vector 596 Scenario.node[119].veinsmobility posy ETV
vector 597 Scenario.node[119].veinsmobility speed ETV
559	399432 632 281 304 280 303 24 0.973 8.0136277102971 69.649548898979 293.42303611662
558	400064 705 281 304 280 303 24 -0.83463450609706 2.4558103951626 10.85813461531 23.842169815423
557	400769 698 280 304 279 303 25 2.3790737347212 13.448548629862 288.0256280883 3542.8776220473
556	401467 494 279 304 278 303 26 1013.4 1013.4 26348.4 26701468.56
555	401961 727 279 304 278 303 26 64.094312672104 2774.4273071429 40335.711866821 81311121.484166
vector 598 Scenario.node[119].veinsmobility acceleration ETV
vector 599 Scenario.node[119].veinsmobility co2emission ETV
vector 600 Scenario.node[120].veinsmobility posx ETV
vector 601 Scenario.node[120].veinsmobility posy ETV
vector 602 Scenario.node[120].veinsmobility speed ETV
566	402969 640 284 307 283 306 24 0.973 9.4541909947312 68.252607377103 284.46509189633
565	403609 700 284 307 283 306 24 -0.6254848479759 2.5879381373757 10.364336859485 23.378724562105
562	404309 698 283 307 282 306 25 2.5633602031972 13.154475717971 288.46516675299 3518.3451646585
561	405007 494 282 307 281 306 26 1013.4 1013.4 26348.4 26701468.56
560	405501 723 282 307 281 306 26 59.715659890099 2774.4273071429 39904.524691124 79835388.177492
vector 603 Scenario.node[120].veinsmobility acceleration ETV
vector 604 Scenario.node[120].veinsmobility co2emission ETV
vector 605 Scenario.node[121].veinsmobility posx ETV
vector 606 Scenario.node[121].veinsmobility posy ETV
vector 607 Scenario.node[121].veinsmobility speed ETV
91	406505 5040 48 310 47 309 263 0.973 9.0183493229872 343.54506193847 787.72097642843
90	411545 4979 48 310 47 309 263 -4.4027108658141 2.334699990158 11.800381714212 149.92459268505
87	416524 4769 47 310 46 309 264 0 14.652939344234 275.52399354321 2722.7125866901
83	421293 6895 46 310 45 309 265 59.632292857143 1013.4 227147.8306106 201216321.24357
82	428188 6943 46 310 45 309 265 168.41198803641 2378.1077071429 412523.22565132 656051181.38785
vector 608 Scenario.node[121].veinsmobility acceleration ETV
vector 609 Scenario.node[121].veinsmobility co2emission ETV
vector 610 Scenario.node[122].veinsmobility posx ETV
vector 611 Scenario.node[122].veinsmobility posy ETV
vector 612 Scenario.node[122].veinsmobility speed ETV
vector 613 Scenario.node[122].veinsmobility acceleration ETV
vector 614 Scenario.node[122].veinsmobility co2emission ETV
569	435533 740 286 314 285 313 29 0.973 5.9433723193233 86.06306097071 334.59121172378
568	436273 839 286 314 285 313 29 -4.3733237587187 2.1365067891311 10.974819915044 58.023898760723
567	437112 838 285 314 284 313 30 0.80822779868008 12.070840467595 281.63675030319 2929.2365317688
564	437950 589 284 314 283 313 31 1013.4 1013.4 31415.4 31836366.36
563	438539 862 284 314 283 313 31 127.7398568189 2774.4273071429 49096.513850108 97835515.417871
vector 615 Scenario.node[123].veinsmobility posx ETV
vector 616 Scenario.node[123].veinsmobility posy ETV
vector 617 Scenario.node[123].veinsmobility speed ETV
574	439561 685 290 316 289 315 27 0.973 9.4465594593276 90.659307375318 447.3695267892
573	440246 777 290 316 289 315 27 -3.8903446054806 2.4878718231572 11.876749216757 58.69180933088
572	441023 781 289 316 288 315 28 1.7016317246715 13.685649333793 285.93508004171 3164.1494829239
571	441804 551 288 316 287 315 29 1013.4 1013.4 29388.6 29782407.24
570	442355 810 288 316 287 315 29 84.920202987351 2774.4273071429 44609.780115288 87911191.805879
vector 618 Scenario.node[124].veinsmobility posx ETV
vector 619 Scenario.node[124].veinsmobility posy ETV
vector 620 Scenario.node[123].veinsmobility acceleration ETV
vector 621 Scenario.node[123].veinsmobility co2emission ETV
vector 622 Scenario.node[125].veinsmobility posx ETV
vector 623 Scenario.node[125].veinsmobility posy ETV
vector 624 Scenario.node[124].veinsmobility speed ETV
579	443552 636 293 318 292 317 26 0.973 7.9295032944294 77.738479696912 365.72686153872
578	444188 758 293 318 292 317 26 -1.4447055488016 2.2594775885111 10.119329891758 34.799204430681
[...]
102	591422 9196 52 385 51 384 334 113.60350182493 2378.1077071429 536210.86346479 879572054.0674
vector 743 Scenario.node[148].veinsmobility acceleration ETV
vector 744 Scenario.node[148].veinsmobility co2emission ETV
vector 745 Scenario.node[149].veinsmobility posx ETV
vector 746 Scenario.node[149].veinsmobility posy ETV
704	600845 648 362 387 361 386 26 0.973 9.1072148089937 86.584047092836 444.1531991331
703	601493 747 362 387 361 386 26 -2.3637525115466 2.5107712901896 10.915667968085 49.523321257734
702	602240 754 361 387 360 386 27 1.475207975111 13.315692808833 285.34648533916 3287.9832495499
701	602994 532 360 387 359 386 28 1013.4 1013.4 28375.2 28755427.68
700	603526 781 360 387 359 386 28 90.783741371704 2774.4273071429 43887.065329511 88130408.674452
vector 747 Scenario.node[149].veinsmobility speed ETV
vector 748 Scenario.node[149].veinsmobility acceleration ETV
vector 749 Scenario.node[149].veinsmobility co2emission ETV
709	604482 628 365 389 364 388 25 0.973 6.9793183189918 75.092427268831 312.0438455172
708	605110 725 365 389 364 388 25 -1.1231976588489 2.268980132998 10.433205242214 28.258235879353
707	605835 724 364 389 363 388 26 1.9870588642867 12.655480029132 280.50282216787 3225.0711864599
706	606559 513 363 389 362 388 27 1013.4 1013.4 27361.8 27728448.12
705	607072 755 363 389 362 388 27 139.03596790807 2774.4273071429 42551.969176677 85261666.825193
vector 750 Scenario.node[150].veinsmobility posx ETV
vector 751 Scenario.node[150].veinsmobility posy ETV
vector 752 Scenario.node[151].veinsmobility posx ETV
vector 753 Scenario.node[151].veinsmobility posy ETV
vector 754 Scenario.node[150].veinsmobility speed ETV
714	608093 600 368 391 367 390 24 0.973 11.001672847184 86.116813576374 493.6084728828
713	608693 694 368 391 367 390 24 -1.2457939451643 2.4532071444111 12.530520952652 39.587668241401
712	609387 696 367 391 366 390 25 2.4523080519633 14.982829004615 286.40781248584 3489.7245849844
711	610083 494 366 391 365 390 26 1013.4 1013.4 26348.4 26701468.56
710	610577 724 366 391 365 390 26 80.21087614554 2774.4273071429 39947.907380737 79503229.762071
vector 755 Scenario.node[150].veinsmobility acceleration ETV
vector 756 Scenario.node[150].veinsmobility co2emission ETV
vector 757 Scenario.node[151].veinsmobility speed ETV
vector 758 Scenario.node[152].veinsmobility posx ETV
vector 759 Scenario.node[152].veinsmobility posy ETV
vector 760 Scenario.node[151].veinsmobility acceleration ETV
vector 761 Scenario.node[151].veinsmobility co2emission ETV
719	611703 583 371 393 370 392 23 0.973 8.4201351415436 75.846148468567 353.7909054171
718	612286 671 371 393 370 392 23 -0.89649140276015 2.5559595440747 11.463428838312 28.303268827451
717	612957 669 370 393 369 392 24 2.5021708072862 14.054254193854 289.15134638721 3710.8606412246
716	613626 475 369 393 368 392 25 1013.4 1013.4 25335 25674489
715	614101 698 369 393 368 392 25 52.879987386787 2774.4273071429 38612.22954982 77772762.505221
vector 762 Scenario.node[152].veinsmobility speed ETV
vector 763 Scenario.node[152].veinsmobility acceleration ETV
vector 764 Scenario.node[152].veinsmobility co2emission ETV
vector 765 Scenario.node[153].veinsmobility posx ETV
vector 766 Scenario.node[153].veinsmobility posy ETV
vector 767 Scenario.node[153].veinsmobility speed ETV
724	615134 618 374 397 373 396 24 0.973 7.7157583971789 69.916982524782 286.86622546574
723	615752 702 374 397 373 396 24 -0.91492740551475 2.5496511475183 11.139632041358 28.237946503192
722	616454 696 373 397 372 396 25 1.453629277274 13.466198981019 283.7203387613 3437.3720551022
721	617150 494 372 397 371 396 26 1013.4 1013.4 26348.4 26701468.56
720	617644 727 372 397 371 396 26 106.98329742698 2774.4273071429 40670.080333789 81769150.006737
vector 768 Scenario.node[153].veinsmobility acceleration ETV
vector 769 Scenario.node[153].veinsmobility co2emission ETV
vector 770 Scenario.node[154].veinsmobility posx ETV
vector 771 Scenario.node[154].veinsmobility posy ETV
vector 772 Scenario.node[154].veinsmobility speed ETV
vector 773 Scenario.node[154].veinsmobility acceleration ETV
vector 774 Scenario.node[154].veinsmobility co2emission ETV
vector 775 Scenario.node[155].veinsmobility posx ETV
vector 776 Scenario.node[155].veinsmobility posy ETV
729	618879 654 377 402 376 401 26 0.973 7.7850543451953 71.973450935248 288.84055554037
728	619533 761 377 402 376 401 26 -1.1259306885768 2.3668527648086 10.046838278644 27.245603067211
727	620294 748 376 402 375 401 27 1.8878775807796 12.381264474307 289.69318576708 3289.4526520358
726	621042 532 375 402 374 401 28 1013.4 1013.4 28375.2 28755427.68
725	621574 783 375 402 374 401 28 47.482222187353 2774.4273071429 42592.797271601 84883426.544742
vector 777 Scenario.node[155].veinsmobility speed ETV
vector 778 Scenario.node[155].veinsmobility acceleration ETV
vector 779 Scenario.node[155].veinsmobility co2emission ETV
vector 780 Scenario.node[156].veinsmobility posx ETV
vector 781 Scenario.node[156].veinsmobility posy ETV
734	622638 675 380 405 379 404 26 0.973 8.2828414269171 69.878908675496 257.88783501614
733	623313 762 380 405 379 404 26 -1.0200810053386 2.4194708373863 10.073108698945 25.314243681581
732	624075 754 379 405 378 404 27 1.3473878446035 12.219923018669 281.61070648428 3138.4416808163
731	624829 532 378 405 377 404 28 1013.4 1013.4 28375.2 28755427.68
730	625361 779 378 405 377 404 28 127.99930348266 2774.4273071429 43984.446644896 88330422.498096
vector 782 Scenario.node[156].veinsmobility speed ETV
vector 783 Scenario.node[156].veinsmobility acceleration ETV
vector 784 Scenario.node[156].veinsmobility co2emission ETV
vector 785 Scenario.node[157].veinsmobility posx ETV
vector 786 Scenario.node[157].veinsmobility posy ETV
739	626421 668 383 408 382 407 26 0.973 7.6132758837187 69.545208534542 259.84390988189
738	627089 760 383 408 382 407 26 -0.78165931671392 2.3993457370671 10.096987174446 25.912792118606
737	627849 754 382 408 381 407 27 1.4249047322432 12.366558797419 286.86448874343 3239.1151406135
736	628603 532 381 408 380 407 28 1013.4 1013.4 28375.2 28755427.68
735	629135 781 381 408 380 407 28 75.661499887111 2774.4273071429 43040.860742452 85957802.005177
vector 787 Scenario.node[157].veinsmobility speed ETV
vector 788 Scenario.node[157].veinsmobility acceleration ETV
vector 789 Scenario.node[157].veinsmobility co2emission ETV
744	630091 627 386 410 385 409 25 0.973 8.0378918284574 77.815786186268 357.80310782801
743	630718 719 386 410 385 409 25 -1.5412457088414 2.32213458966 10.654051068221 31.038871993461
742	631437 726 385 410 384 409 26 2.0350579475285 14.348157651734 289.88391085561 3484.4579442433
741	632163 513 384 410 383 409 27 1013.4 1013.4 27361.8 27728448.12
740	632676 755 384 410 383 409 27 45.582232478569 2774.4273071429 41214.50828532 83009866.036658
vector 790 Scenario.node[158].veinsmobility posx ETV
vector 791 Scenario.node[158].veinsmobility posy ETV
vector 792 Scenario.node[158].veinsmobility speed ETV
749	633591 610 389 412 388 411 24 0.973 5.9833443738219 69.791650163073 277.18333954622
748	634201 701 389 412 388 411 24 -0.90272479131818 2.2390610435279 10.387532008959 24.21565862663
747	634902 698 388 412 387 411 25 1.9206296366872 13.435140106182 280.95515570342 3376.2409438907
746	635600 494 387 412 386 411 26 1013.4 1013.4 26348.4 26701468.56
745	636094 727 387 412 386 411 26 134.52985353647 2774.4273071429 41192.428301557 83166475.426857
vector 793 Scenario.node[158].veinsmobility acceleration ETV
vector 794 Scenario.node[158].veinsmobility co2emission ETV
vector 795 Scenario.node[159].veinsmobility posx ETV
vector 796 Scenario.node[159].veinsmobility posy ETV
112	637048 9950 55 414 54 413 360 1432.8682797752 2378.1077071429 596949.37284248 999954258.09696
113	646998 9981 55 414 54 413 360 59.632292857143 1004.8717202248 280637.02715751 228867000.52688
115	656979 6946 56 414 55 413 359 0 12.202168247281 134.79899342115 741.4206494455
118	663925 7254 57 414 56 413 358 -4.1187730610996 2.5199637101265 -1.2355687448428 112.61933402509
119	671179 7261 57 414 56 413 358 0.973 8.5619161581965 396.7753601877 572.90331841228
137	678440 9515 68 414 67 413 347 1485.4674487459 2378.1077071429 590668.58219817 1014081323.089
138	687955 9644 68 414 67 413 347 59.632292857143 952.27255125409 255227.19780182 196362442.69067
142	697599 6761 69 414 68 413 346 0 11.486650519747 127.29791504169 695.95760168755
145	704360 7041 70 414 69 413 345 -4.5 2.5455129802227 -2.5601097108098 108.37948078037
146	711401 7066 70 414 69 413 345 0.973 8.2995295473726 379.94862941056 542.6733194675
152	718467 9451 74 414 73 413 341 1538.0665427271 2378.1077071429 597519.83241101 1055159684.6344
153	727918 9471 74 414 73 413 341 59.632292857143 899.67345727292 233749.50758899 168382213.00281
157	737389 6801 75 414 74 413 340 0 11.23530552187 119.79684735636 572.31124364505
160	744190 7139 76 414 75 413 339 -4.2598598558237 2.5762915678322 -1.5045135640306 98.894839925557
161	751329 7023 76 414 75 413 339 0.973 6.8715777314667 373.49068898407 511.85942379752
162	758352 9403 77 414 76 413 338 1590.6653591877 2378.1077071429 609486.04389317 1106585150.8807
163	767755 9313 77 414 76 413 338 59.632292857143 847.07464081229 214470.07610683 143638925.56918
167	777068 6909 78 414 77 413 337 0 10.696274048402 112.29581924776 489.87810854511
170	783977 7239 79 414 78 413 336 -4.5 2.4968238260131 -2.1309734960087 98.485191012833
171	791216 7065 79 414 78 413 336 0.973 8.1540285343055 368.71518409146 499.7372366849
178	798281 9212 84 414 83 413 331 1643.2644517029 2378.1077071429 613067.83985266 1142476996.788
179	807493 9197 84 414 83 413 331 59.632292857143 794.47554829709 193824.10014734 120469762.75874
184	816690 6899 85 414 84 413 330 0 10.022781468136 104.79475177149 394.78798722558
185	823589 7204 86 414 85 413 329 -3.8190620807787 2.3487701549893 -1.5563912799116 77.55772426046
186	830793 6970 86 414 85 413 329 0.973 5.9632676693029 359.19804891673 465.46884571002
193	837763 9014 90 414 89 413 325 1695.8632633876 2378.1077071429 618008.01804931 1181633798.1121
194	846777 9063 90 414 89 413 325 59.632292857143 741.87673661238 174257.48195069 99885366.243005
199	855840 6889 91 414 90 413 324 0 8.585153145832 97.293724343985 294.57962736174
200	862729 7187 92 414 91 413 323 -3.3260272168234 1.9013734520879 -2.0425920158159 62.706788737524
201	869916 6897 92 414 91 413 323 0.973 4.807985170747 348.50987738852 416.66579622765
203	876813 8957 93 414 92 413 322 1748.4621250449 2378.1077071429 628729.37355956 1233660532.5076
204	885770 8988 93 414 92 413 322 59.632292857143 689.27787495512 156222.90644044 81812617.352661
209	894758 6994 94 414 93 413 321 0 7.9449934402172 89.792689789976 239.66305997426
210	901752 7328 95 414 94 413 320 -3.8613117918748 2.4095296141692 -2.5457408397226 59.86534111241
211	909080 6989 95 414 94 413 320 0.973 5.5887600098218 344.99036592605 409.17981884809
213	916069 8854 96 414 95 413 319 1801.0608973809 2378.1077071429 639308.35880912 1286966530.3546
214	924923 8881 96 414 95 413 319 59.632292857143 636.67910261912 138330.70119088 65713255.272269
219	933804 6989 97 414 96 413 318 0 6.7037686436571 82.29166797392 181.3675887536
220	940793 7307 98 414 97 413 317 -3.7868287200635 2.3167190329405 -1.845569244423 63.56691277996
221	948100 6936 98 414 97 413 317 0.973 4.9081728884983 341.00776505809 396.09247894691
225	955036 8818 99 414 98 413 316 1853.6595916079 2378.1077071429 649610.41956965 1340881383.5177
226	963854 8820 99 414 98 413 316 59.632292857143 584.08040839208 120715.42043035 51572888.315817
230	972674 6960 100 414 99 413 315 0 4.8923560728785 74.79065729685 120.0480721352
233	979634 7301 101 414 100 413 314 -3.5777870602998 1.7744026835143 -1.6567937785061 45.822847544739
234	986935 6885 101 414 100 413 314 0.973 3.2630109843142 333.63278669059 368.2168072882
235	993820 8732 102 414 101 413 313 1906.2582387977 2378.1077071429 659624.02833311 1395320198.083
236	1002552 8698 102 414 101 413 313 59.632292857143 531.48176120234 103388.59166689 39362824.704335
239	1011250 7040 103 414 102 413 312 0 3.9669619650114 67.289653327692 81.44828019977
240	1018290 7347 104 414 103 413 311 -2.8524354212028 2.5559267335804 -1.411035231431 41.372010146189
241	1025637 6942 104 414 103 413 311 0.973 3.7506958605024 331.19851724459 365.70478156998
268	1032579 8230 120 414 119 413 295 1958.8570169023 2378.1077071429 633703.31060362 1365540234.9265
269	1040809 8233 120 414 119 413 295 59.632292857143 478.88298309774 85429.989396376 28992428.886723
274	1049042 6654 121 414 120 413 294 0 2.7480557897866 59.788630688985 61.047619898189
275	1055696 6991 122 414 121 413 293 -1.9327737642534 1.6767819053018 -0.19713299484072 28.486526076458
276	1062687 6601 122 414 121 413 293 0.973 2.3549848751954 311.19010361266 336.24015877581
342	1069288 7079 161 414 160 413 254 2011.4560247125 2378.1077071429 551868.01533183 1201669928.2484
343	1076367 7086 161 414 160 413 254 59.632292857143 426.28397528752 67317.944668167 20462838.988734
347	1083453 5780 162 414 161 413 253 0 2.1728218419724 52.28757529235 49.507043809371
350	1089233 6065 163 414 162 413 252 -1.3643262062704 1.203291827638 -0.10339955014555 18.028074272917
351	1095298 5629 163 414 162 413 252 0.973 1.8458684117378 266.11869191741 284.67265005109
407	1100927 6050 198 414 197 413 217 2064.0546453141 2378.1077071429 477268.64846317 1051177920.7596
408	1106977 6061 198 414 197 413 217 59.632292857143 373.6853546859 51720.931536833 13803229.299632
410	1113038 4965 199 414 198 413 216 0 2.0099152395601 44.786575114877 40.570364254834
413	1118003 5186 200 414 199 413 215 -1.3420392049323 1.0701909763315 -0.29800511936243 13.345433654535
414	1123189 4815 200 414 199 413 215 0.973 1.7260977380518 226.79724423642 242.02696255437
442	1128004 5513 217 414 216 413 198 2116.6534331587 2378.1077071429 443501.89121928 994447578.96661
443	1133517 5530 217 414 216 413 198 59.632292857143 321.08656684129 39170.628780719 8793087.2696259
447	1139047 4431 218 414 217 413 197 0 2.1415759105825 37.285551087165 34.182105287266
450	1143478 4640 219 414 218 413 196 -1.286911147774 1.5601802038079 -0.29936588921963 13.088773455848
451	1148118 4361 219 414 218 413 196 0.973 2.0194568544032 206.35292482613 220.22534866742
517	1152479 4325 259 414 258 413 156 2169.2530926837 2378.1077071429 353916.0036926 803484938.06658
518	1156804 4360 259 414 258 413 156 59.632292857143 268.48690731631 26371.436307402 5016444.3689902
522	1161164 3535 260 414 259 413 155 0 2.0755619154816 29.784402750591 28.563081128818
525	1164699 3695 261 414 260 413 154 -1.3961300194586 1.4587497821085 -0.092070307916195 11.651762651587
526	1168394 3456 261 414 260 413 154 0.973 1.8943880581545 162.79204951202 174.82714689241
618	1171850 2737 317 414 316 413 98 2221.8517261242 2378.1077071429 223989.17605061 512125609.39013
619	1174587 2726 317 414 316 413 98 59.632292857143 215.88827387584 14909.343949388 2443339.4836939
624	1177313 2397 318 414 317 413 97 0 1.672834981902 22.283400742192 20.383337406722
625	1179710 2486 319 414 318 413 96 -0.98691852174406 0.82409327086608 -0.32059176338185 5.357547753698
626	1182196 2237 319 414 318 413 96 0.973 1.4204632601935 102.58499720322 110.6629122033
678	1184433 1809 350 414 349 413 65 2274.4514549349 2378.1077071429 150511.57602656 348571823.53571
679	1186242 1812 350 414 349 413 65 59.632292857143 163.28854506511 7941.5239734399 1023104.8437413
684	1188054 1566 351 414 350 413 64 0 1.6249580915152 14.782242524896 13.121491481946
685	1189620 1614 352 414 351 413 63 -0.87737377983705 1.0305900422871 -0.41690525267881 4.1351048249217
686	1191234 1422 352 414 351 413 63 0.973 1.5923787632919 66.682732217674 71.4165990501
750	1192656 698 390 414 389 413 25 213.17303443807 2774.4273071429 40011.973449794 80124335.366718
751	1193354 475 390 414 389 413 25 1013.4 1013.4 25335 25674489
752	1193829 671 391 414 390 413 24 2327.0501084348 2378.1077071429 56145.843997756 131355680.29015
753	1194500 669 391 414 390 413 24 59.632292857143 110.68989156523 2359.9160022441 239572.17837481
754	1195169 670 391 414 390 413 24 2.1281129902462 13.201697062447 273.06078260712 3299.6365616077
755	1195839 668 392 414 391 413 23 -1.041447932017 2.4842622465454 9.8265757543052 30.536680337772
756	1196507 564 392 414 391 413 23 0.973 7.6733743541097 70.859218542217 324.18582470259
757	1197071 634 392 414 391 413 23 0 1.4718974044906 7.2812376558571 6.3384201625612
758	1197705 615 393 414 392 413 22 429.48603971664 2774.4273071429 37876.386158356 77666984.661338
759	1198320 418 393 414 392 413 22 1013.4 1013.4 22294.8 22593550.32
760	1198738 634 393 414 392 413 22 -0.6694931417099 0.49447426531059 -0.14621180825601 1.4017947413259
761	1199372 535 393 414 392 413 22 0.973 1.3227649967408 23.959605173616 26.321151798251
762	1199907 587 394 414 393 413 21 2.1574885006296 14.609545834751 251.34681389839 3263.2717164645
763	1200494 583 395 414 394 413 20 -0.98922542309487 2.4087467367062 10.574492889975 25.806311307152
764	1201077 519 395 414 394 413 20 0.973 7.810918980465 64.741828455292 296.57932871072
765	1201596 528 396 414 395 413 19 930.32372271147 2774.4273071429 36676.241002226 77626416.593391
766	1202124 361 396 414 395 413 19 1013.4 1013.4 19254.6 19512611.64
767	1202485 499 397 414 396 413 18 2.0531620727386 13.308832190359 201.07164083288 2435.1247083656
768	1202984 490 398 414 397 413 17 -1.1274012682494 2.4867243850837 10.048963856382 27.643891383461
769	1203474 435 398 414 397 413 17 0.973 8.7004780965464 55.357993014688 266.80824093418
770	1203909 448 399 414 398 413 16 1424.2080395387 2774.4273071429 34762.609658648 79088963.817427
771	1204357 304 399 414 398 413 16 1013.4 1013.4 16214.4 16431672.96
772	1204661 419 400 414 399 413 15 1.5939843299333 13.012357384291 147.41462050792 1637.0878224316
773	1205080 404 401 414 400 413 14 -0.70528406174853 2.0894400064135 10.38564941855 20.33690882555
774	1205484 361 401 414 400 413 14 0.973 6.6881058519759 45.789430499102 195.64748880639
775	1205845 364 402 414 401 413 13 1598.5041410025 2774.4273071429 29839.990741919 70502299.888481
776	1206209 247 402 414 401 413 13 1013.4 1013.4 13174.2 13350734.28
777	1206456 335 403 414 402 413 12 2.4807193787536 13.49357756345 118.58589702266 1350.7134804888
778	1206791 315 404 414 403 413 11 -0.36559574811254 2.4940332132624 10.44055567625 21.635701105744
779	1207106 288 404 414 403 413 11 0.973 8.9927890785694 41.481702677625 231.50195932302
780	1207394 279 405 414 404 413 10 1969.1655831071 2774.4273071429 24698.365530971 61708008.759487
781	1207673 190 405 414 404 413 10 1013.4 1013.4 10134 10269795.6
782	1207863 250 406 414 405 413 9 2.307508092327 14.835143913197 81.206567429247 896.93894354302
783	1208113 225 407 414 406 413 8 0.26442982825351 2.3577046880731 12.52763582087 22.367347405657
784	1208338 222 407 414 406 413 8 2.7092964701082 10.377839562793 42.272654033999 264.53256937284
785	1208560 195 408 414 407 413 7 2396.1713869055 2774.4273071429 18394.211487308 48454968.679582
786	1208755 133 408 414 407 413 7 1013.4 1013.4 7093.8 7188856.92
787	1208888 168 409 414 408 413 6 1.5906422160566 10.315079064098 38.145194258483 294.36238387592
788	1209056 140 410 414 409 413 5 1.2453283751508 2.5576712027891 8.724436848041 16.200883060041
789	1209196 140 410 414 409 413 5 3.6085884058915 5.5282690846395 22.012051053526 99.287536046602
790	1209336 112 411 414 410 413 4 2657.1193019567 2774.4273071429 10891.349471906 29663213.953081
791	1209448 76 411 414 410 413 4 1013.4 1013.4 4053.6 4107918.24
792	1209524 84 412 414 411 413 3 2.5238165302435 5.3733166411053 11.829918334377 50.708980742444
793	1209608 56 413 414 412 413 2 1.4089686327847 1.4405314780772 2.8495001108618 4.0603235475023
794	1209664 56 413 414 412 413 2 2.6407589367959 3.2489846250917 5.8897435618876 17.529508856349
795	1209720 28 414 414 413 413 1 2774.4273071429 2774.4273071429 2774.4273071429 7697446.88262
796	1209748 19 414 414 413 413 1 1013.4 1013.4 1013.4 1026979.56
