version 2
run General-0-20211112-08:41:30-4235
attr configname General
attr datetime 20211112-08:41:30
attr experiment General
attr inifile omnetpp.ini
attr iterationvars ""
attr iterationvarsf ""
attr measurement ""
attr network org.car2x.veins.nodes.Scenario
attr processid 4235
attr repetition 0
attr replication #0
attr resultdir results
attr runnumber 0
attr seedset 0
param *.playgroundSizeX 3000m
param *.playgroundSizeY 2000m
param *.playgroundSizeZ 50m
param *.manager.updateInterval 1s
param *.manager.host "\"localhost\""
param *.manager.port 9999
param *.manager.autoShutdown true
param *.manager.launchConfig "xmldoc(\"veins.launchd.xml\")"
param *.annotations.draw true
param *.connectionManager.sendDirect true
param *.connectionManager.maxInterfDist 500m
param *.connectionManager.drawMaxIntfDist false
param *.**.nic.mac1609_4.useServiceChannel false
param *.**.nic.mac1609_4.txPower 20mW
param *.**.nic.mac1609_4.bitrate 6Mbps
param *.**.nic.phy80211p.minPowerLevel -110dBm
param *.**.nic.phy80211p.useNoiseFloor true
param *.**.nic.phy80211p.noiseFloor -98dBm
param *.**.nic.phy80211p.decider "xmldoc(\"config.xml\")"
param *.**.nic.phy80211p.analogueModels "xmldoc(\"config.xml\")"
param *.**.nic.phy80211p.usePropagationDelay true
param *.**.nic.phy80211p.antenna "xmldoc(\"antenna.xml\", \"/root/Antenna[@id='monopole']\")"
param *.node[*].nic.phy80211p.antennaOffsetY "0 m"
param *.node[*].nic.phy80211p.antennaOffsetZ "0 m"
param *.node[*].applType "\"InteractingVehicle\""
param *.node[*].appl.headerLength "88 bit"
param *.node[*].appl.dataLengthBits "512 bit"
param *.node[*].appl.sendBeacons false
param *.node[*].appl.dataOnSch false
param *.node[*].appl.beaconInterval 1s
param *.node[*].veinsmobility.x 0
param *.node[*].veinsmobility.y 0
param *.node[*].veinsmobility.z 0
param *.obstacles.obstacles "xmldoc(\"config.xml\", \"//AnalogueModel[@type='SimpleObstacleShadowing']/obstacles\")"

scalar Scenario.node[0].appl generatedWSMs 0
scalar Scenario.node[0].appl receivedWSMs 0
scalar Scenario.node[0].appl generatedBSMs 0
scalar Scenario.node[0].appl receivedBSMs 0
scalar Scenario.node[0].appl generatedWSAs 0
scalar Scenario.node[0].appl receivedWSAs 0
scalar Scenario.node[0].nic.phy80211p busyTime 0
scalar Scenario.node[0].nic.mac1609_4 ReceivedUnicastPackets 0
scalar Scenario.node[0].nic.mac1609_4 ReceivedBroadcasts 0
scalar Scenario.node[0].nic.mac1609_4 SentPackets 0
scalar Scenario.node[0].nic.mac1609_4 SentAcknowledgements 0
scalar Scenario.node[0].nic.mac1609_4 RetriesExceeded 0
scalar Scenario.node[0].nic.mac1609_4 SNIRLostPackets 0
scalar Scenario.node[0].nic.mac1609_4 RXTXLostPackets 0
scalar Scenario.node[0].nic.mac1609_4 TotalLostPackets 0
scalar Scenario.node[0].nic.mac1609_4 DroppedPacketsInMac 0
scalar Scenario.node[0].nic.mac1609_4 TooLittleTime 0
scalar Scenario.node[0].nic.mac1609_4 TimesIntoBackoff 0
scalar Scenario.node[0].nic.mac1609_4 SlotsBackoff 0
scalar Scenario.node[0].nic.mac1609_4 NumInternalContention 0
scalar Scenario.node[0].nic.mac1609_4 totalBusyTime 0
scalar Scenario.node[0].nic.mac1609_4 retriesExceeded:count 0
attr source org_car2x_veins_modules_mac_sigRetriesExceeded
scalar Scenario.node[0].nic.mac1609_4 sentAcks:count 0
attr source org_car2x_veins_modules_mac_sigSentAck
scalar Scenario.node[0].nic.mac1609_4 sentPackets:count 0
attr source org_car2x_veins_modules_mac_sigSentPacket
scalar Scenario.node[0].nic.mac1609_4 collisions:count 0
attr source org_car2x_veins_modules_mac_sigCollision
scalar Scenario.node[0].nic.mac1609_4 channelBusy:timeavg 0
attr source org_car2x_veins_modules_mac_sigChannelBusy
scalar Scenario.node[0].veinsmobility startTime 7
scalar Scenario.node[0].veinsmobility totalTime 24
scalar Scenario.node[0].veinsmobility stopTime 32
scalar Scenario.node[0].veinsmobility minSpeed 1.5972831639228
scalar Scenario.node[0].veinsmobility maxSpeed 15.488900420416
scalar Scenario.node[0].veinsmobility totalDistance 2712.622739891
scalar Scenario.node[0].veinsmobility totalCO2Emission 104.50882965712
scalar Scenario.node[1].appl generatedWSMs 0
scalar Scenario.node[1].appl receivedWSMs 0
scalar Scenario.node[1].appl generatedBSMs 0
scalar Scenario.node[1].appl receivedBSMs 0
scalar Scenario.node[1].appl generatedWSAs 0
scalar Scenario.node[1].appl receivedWSAs 0
scalar Scenario.node[1].nic.phy80211p busyTime 0
scalar Scenario.node[1].nic.mac1609_4 ReceivedUnicastPackets 0
scalar Scenario.node[1].nic.mac1609_4 ReceivedBroadcasts 0
scalar Scenario.node[1].nic.mac1609_4 SentPackets 0
scalar Scenario.node[1].nic.mac1609_4 SentAcknowledgements 0
scalar Scenario.node[1].nic.mac1609_4 RetriesExceeded 0
scalar Scenario.node[1].nic.mac1609_4 SNIRLostPackets 0
scalar Scenario.node[1].nic.mac1609_4 RXTXLostPackets 0
scalar Scenario.node[1].nic.mac1609_4 TotalLostPackets 0
scalar Scenario.node[1].nic.mac1609_4 DroppedPacketsInMac 0
scalar Scenario.node[1].nic.mac1609_4 TooLittleTime 0
scalar Scenario.node[1].nic.mac1609_4 TimesIntoBackoff 0
scalar Scenario.node[1].nic.mac1609_4 SlotsBackoff 0
scalar Scenario.node[1].nic.mac1609_4 NumInternalContention 0
scalar Scenario.node[1].nic.mac1609_4 totalBusyTime 0
scalar Scenario.node[1].nic.mac1609_4 retriesExceeded:count 0
attr source org_car2x_veins_modules_mac_sigRetriesExceeded
scalar Scenario.node[1].nic.mac1609_4 sentAcks:count 0
attr source org_car2x_veins_modules_mac_sigSentAck
scalar Scenario.node[1].nic.mac1609_4 sentPackets:count 0
attr source org_car2x_veins_modules_mac_sigSentPacket
scalar Scenario.node[1].nic.mac1609_4 collisions:count 0
attr source org_car2x_veins_modules_mac_sigCollision
scalar Scenario.node[1].nic.mac1609_4 channelBusy:timeavg 0
attr source org_car2x_veins_modules_mac_sigChannelBusy
scalar Scenario.node[1].veinsmobility startTime 10
scalar Scenario.node[1].veinsmobility totalTime 26
scalar Scenario.node[1].veinsmobility stopTime 37
scalar Scenario.node[1].veinsmobility minSpeed 1.7762572988868
scalar Scenario.node[1].veinsmobility maxSpeed 14.420647808338
scalar Scenario.node[1].veinsmobility totalDistance 2658.4512683343
scalar Scenario.node[1].veinsmobility totalCO2Emission 95.542909372848
scalar Scenario.node[3].appl generatedWSMs 0
scalar Scenario.node[3].appl receivedWSMs 0
scalar Scenario.node[3].appl generatedBSMs 0
scalar Scenario.node[3].appl receivedBSMs 0
scalar Scenario.node[3].appl generatedWSAs 0
scalar Scenario.node[3].appl receivedWSAs 0
scalar Scenario.node[3].nic.phy80211p busyTime 0
scalar Scenario.node[3].nic.mac1609_4 ReceivedUnicastPackets 0
scalar Scenario.node[3].nic.mac1609_4 ReceivedBroadcasts 0
scalar Scenario.node[3].nic.mac1609_4 SentPackets 0
scalar Scenario.node[3].nic.mac1609_4 SentAcknowledgements 0
scalar Scenario.node[3].nic.mac1609_4 RetriesExceeded 0
scalar Scenario.node[3].nic.mac1609_4 SNIRLostPackets 0
scalar Scenario.node[3].nic.mac1609_4 RXTXLostPackets 0
scalar Scenario.node[3].nic.mac1609_4 TotalLostPackets 0
scalar Scenario.node[3].nic.mac1609_4 DroppedPacketsInMac 0
scalar Scenario.node[3].nic.mac1609_4 TooLittleTime 0
scalar Scenario.node[3].nic.mac1609_4 TimesIntoBackoff 0
scalar Scenario.node[3].nic.mac1609_4 SlotsBackoff 0
scalar Scenario.node[3].nic.mac1609_4 NumInternalContention 0
scalar Scenario.node[3].nic.mac1609_4 totalBusyTime 0
scalar Scenario.node[3].nic.mac1609_4 retriesExceeded:count 0
attr source org_car2x_veins_modules_mac_sigRetriesExceeded
scalar Scenario.node[3].nic.mac1609_4 sentAcks:count 0
attr source org_car2x_veins_modules_mac_sigSentAck
scalar Scenario.node[3].nic.mac1609_4 sentPackets:count 0
attr source org_car2x_veins_modules_mac_sigSentPacket
scalar Scenario.node[3].nic.mac1609_4 collisions:count 0
attr source org_car2x_veins_modules_mac_sigCollision
scalar Scenario.node[3].nic.mac1609_4 channelBusy:timeavg 0
attr source org_car2x_veins_modules_mac_sigChannelBusy
scalar Scenario.node[3].veinsmobility startTime 15
scalar Scenario.node[3].veinsmobility totalTime 24
scalar Scenario.node[3].veinsmobility stopTime 40
scalar Scenario.node[3].veinsmobility minSpeed 2.5865135943983
scalar Scenario.node[3].veinsmobility maxSpeed 14.085233650661
scalar Scenario.node[3].veinsmobility totalDistance 2726.3684253287
scalar Scenario.node[3].veinsmobility totalCO2Emission 73.584207398889
scalar Scenario.node[4].appl generatedWSMs 0
scalar Scenario.node[4].appl receivedWSMs 0
scalar Scenario.node[4].appl generatedBSMs 0
scalar Scenario.node[4].appl receivedBSMs 0
scalar Scenario.node[4].appl generatedWSAs 0
scalar Scenario.node[4].appl receivedWSAs 0
scalar Scenario.node[4].nic.phy80211p busyTime 0
scalar Scenario.node[4].nic.mac1609_4 ReceivedUnicastPackets 0
scalar Scenario.node[4].nic.mac1609_4 ReceivedBroadcasts 0
scalar Scenario.node[4].nic.mac1609_4 SentPackets 0
scalar Scenario.node[4].nic.mac1609_4 SentAcknowledgements 0
scalar Scenario.node[4].nic.mac1609_4 RetriesExceeded 0
scalar Scenario.node[4].nic.mac1609_4 SNIRLostPackets 0
scalar Scenario.node[4].nic.mac1609_4 RXTXLostPackets 0
scalar Scenario.node[4].nic.mac1609_4 TotalLostPackets 0
scalar Scenario.node[4].nic.mac1609_4 DroppedPacketsInMac 0
scalar Scenario.node[4].nic.mac1609_4 TooLittleTime 0
scalar Scenario.node[4].nic.mac1609_4 TimesIntoBackoff 0
scalar Scenario.node[4].nic.mac1609_4 SlotsBackoff 0
scalar Scenario.node[4].nic.mac1609_4 NumInternalContention 0
scalar Scenario.node[4].nic.mac1609_4 totalBusyTime 0
scalar Scenario.node[4].nic.mac1609_4 retriesExceeded:count 0
attr source org_car2x_veins_modules_mac_sigRetriesExceeded
scalar Scenario.node[4].nic.mac1609_4 sentAcks:count 0
attr source org_car2x_veins_modules_mac_sigSentAck
scalar Scenario.node[4].nic.mac1609_4 sentPackets:count 0
attr source org_car2x_veins_modules_mac_sigSentPacket
scalar Scenario.node[4].nic.mac1609_4 collisions:count 0
attr source org_car2x_veins_modules_mac_sigCollision
scalar Scenario.node[4].nic.mac1609_4 channelBusy:timeavg 0
attr source org_car2x_veins_modules_mac_sigChannelBusy
scalar Scenario.node[4].veinsmobility startTime 18
scalar Scenario.node[4].veinsmobility totalTime 27
scalar Scenario.node[4].veinsmobility stopTime 46
scalar Scenario.node[4].veinsmobility minSpeed 1.9554947123397
scalar Scenario.node[4].veinsmobility maxSpeed 12.233822048037
scalar Scenario.node[4].veinsmobility totalDistance 2729.1608817027
scalar Scenario.node[4].veinsmobility totalCO2Emission 73.38417869813
scalar Scenario.node[6].appl generatedWSMs 0
scalar Scenario.node[6].appl receivedWSMs 0
scalar Scenario.node[6].appl generatedBSMs 0
scalar Scenario.node[6].appl receivedBSMs 0
scalar Scenario.node[6].appl generatedWSAs 0
scalar Scenario.node[6].appl receivedWSAs 0
scalar Scenario.node[6].nic.phy80211p busyTime 0
scalar Scenario.node[6].nic.mac1609_4 ReceivedUnicastPackets 0
scalar Scenario.node[6].nic.mac1609_4 ReceivedBroadcasts 0
scalar Scenario.node[6].nic.mac1609_4 SentPackets 0
scalar Scenario.node[6].nic.mac1609_4 SentAcknowledgements 0
scalar Scenario.node[6].nic.mac1609_4 RetriesExceeded 0
scalar Scenario.node[6].nic.mac1609_4 SNIRLostPackets 0
scalar Scenario.node[6].nic.mac1609_4 RXTXLostPackets 0
scalar Scenario.node[6].nic.mac1609_4 TotalLostPackets 0
scalar Scenario.node[6].nic.mac1609_4 DroppedPacketsInMac 0
scalar Scenario.node[6].nic.mac1609_4 TooLittleTime 0
scalar Scenario.node[6].nic.mac1609_4 TimesIntoBackoff 0
scalar Scenario.node[6].nic.mac1609_4 SlotsBackoff 0
scalar Scenario.node[6].nic.mac1609_4 NumInternalContention 0
scalar Scenario.node[6].nic.mac1609_4 totalBusyTime 0
scalar Scenario.node[6].nic.mac1609_4 retriesExceeded:count 0
attr source org_car2x_veins_modules_mac_sigRetriesExceeded
scalar Scenario.node[6].nic.mac1609_4 sentAcks:count 0
attr source org_car2x_veins_modules_mac_sigSentAck
scalar Scenario.node[6].nic.mac1609_4 sentPackets:count 0
attr source org_car2x_veins_modules_mac_sigSentPacket
scalar Scenario.node[6].nic.mac1609_4 collisions:count 0
attr source org_car2x_veins_modules_mac_sigCollision
scalar Scenario.node[6].nic.mac1609_4 channelBusy:timeavg 0
attr source org_car2x_veins_modules_mac_sigChannelBusy
scalar Scenario.node[6].veinsmobility startTime 21
scalar Scenario.node[6].veinsmobility totalTime 25
scalar Scenario.node[6].veinsmobility stopTime 47
scalar Scenario.node[6].veinsmobility minSpeed 1.4596124283038
scalar Scenario.node[6].veinsmobility maxSpeed 15.187191945201
scalar Scenario.node[6].veinsmobility totalDistance 2637.5988709123
scalar Scenario.node[6].veinsmobility totalCO2Emission 78.940961726937
scalar Scenario.node[2].appl generatedWSMs 0
scalar Scenario.node[2].appl receivedWSMs 0
scalar Scenario.node[2].appl generatedBSMs 0
scalar Scenario.node[2].appl receivedBSMs 0
scalar Scenario.node[2].appl generatedWSAs 0
scalar Scenario.node[2].appl receivedWSAs 0
scalar Scenario.node[2].nic.phy80211p busyTime 0
scalar Scenario.node[2].nic.mac1609_4 ReceivedUnicastPackets 0
scalar Scenario.node[2].nic.mac1609_4 ReceivedBroadcasts 0
scalar Scenario.node[2].nic.mac1609_4 SentPackets 0
scalar Scenario.node[2].nic.mac1609_4 SentAcknowledgements 0
scalar Scenario.node[2].nic.mac1609_4 RetriesExceeded 0
scalar Scenario.node[2].nic.mac1609_4 SNIRLostPackets 0
scalar Scenario.node[2].nic.mac1609_4 RXTXLostPackets 0
scalar Scenario.node[2].nic.mac1609_4 TotalLostPackets 0
scalar Scenario.node[2].nic.mac1609_4 DroppedPacketsInMac 0
scalar Scenario.node[2].nic.mac1609_4 TooLittleTime 0
scalar Scenario.node[2].nic.mac1609_4 TimesIntoBackoff 0
scalar Scenario.node[2].nic.mac1609_4 SlotsBackoff 0
scalar Scenario.node[2].nic.mac1609_4 NumInternalContention 0
scalar Scenario.node[2].nic.mac1609_4 totalBusyTime 0
scalar Scenario.node[2].nic.mac1609_4 retriesExceeded:count 0
attr source org_car2x_veins_modules_mac_sigRetriesExceeded
scalar Scenario.node[2].nic.mac1609_4 sentAcks:count 0
attr source org_car2x_veins_modules_mac_sigSentAck
scalar Scenario.node[2].nic.mac1609_4 sentPackets:count 0
attr source org_car2x_veins_modules_mac_sigSentPacket
scalar Scenario.node[2].nic.mac1609_4 collisions:count 0
attr source org_car2x_veins_modules_mac_sigCollision
scalar Scenario.node[2].nic.mac1609_4 channelBusy:timeavg 0
attr source org_car2x_veins_modules_mac_sigChannelBusy
scalar Scenario.node[2].veinsmobility startTime 13
scalar Scenario.node[2].veinsmobility totalTime 37
scalar Scenario.node[2].veinsmobility stopTime 51
scalar Scenario.node[2].veinsmobility minSpeed 0
scalar Scenario.node[2].veinsmobility maxSpeed 14.247717444921
scalar Scenario.node[2].veinsmobility totalDistance 2619.8961886283
scalar Scenario.node[2].veinsmobility totalCO2Emission 108.93152998181
scalar Scenario.node[7].appl generatedWSMs 0
scalar Scenario.node[7].appl receivedWSMs 0
scalar Scenario.node[7].appl generatedBSMs 0
scalar Scenario.node[7].appl receivedBSMs 0
scalar Scenario.node[7].appl generatedWSAs 0
scalar Scenario.node[7].appl receivedWSAs 0
scalar Scenario.node[7].nic.phy80211p busyTime 0
scalar Scenario.node[7].nic.mac1609_4 ReceivedUnicastPackets 0
scalar Scenario.node[7].nic.mac1609_4 ReceivedBroadcasts 0
scalar Scenario.node[7].nic.mac1609_4 SentPackets 0
scalar Scenario.node[7].nic.mac1609_4 SentAcknowledgements 0
scalar Scenario.node[7].nic.mac1609_4 RetriesExceeded 0
scalar Scenario.node[7].nic.mac1609_4 SNIRLostPackets 0
scalar Scenario.node[7].nic.mac1609_4 RXTXLostPackets 0
scalar Scenario.node[7].nic.mac1609_4 TotalLostPackets 0
scalar Scenario.node[7].nic.mac1609_4 DroppedPacketsInMac 0
scalar Scenario.node[7].nic.mac1609_4 TooLittleTime 0
scalar Scenario.node[7].nic.mac1609_4 TimesIntoBackoff 0
scalar Scenario.node[7].nic.mac1609_4 SlotsBackoff 0
scalar Scenario.node[7].nic.mac1609_4 NumInternalContention 0
scalar Scenario.node[7].nic.mac1609_4 totalBusyTime 0
scalar Scenario.node[7].nic.mac1609_4 retriesExceeded:count 0
attr source org_car2x_veins_modules_mac_sigRetriesExceeded
scalar Scenario.node[7].nic.mac1609_4 sentAcks:count 0
attr source org_car2x_veins_modules_mac_sigSentAck
scalar Scenario.node[7].nic.mac1609_4 sentPackets:count 0
attr source org_car2x_veins_modules_mac_sigSentPacket
scalar Scenario.node[7].nic.mac1609_4 collisions:count 0
attr source org_car2x_veins_modules_mac_sigCollision
scalar Scenario.node[7].nic.mac1609_4 channelBusy:timeavg 0
attr source org_car2x_veins_modules_mac_sigChannelBusy
scalar Scenario.node[7].veinsmobility startTime 25
scalar Scenario.node[7].veinsmobility totalTime 32
scalar Scenario.node[7].veinsmobility stopTime 58
scalar Scenario.node[7].veinsmobility minSpeed 1.3637467617635
scalar Scenario.node[7].veinsmobility maxSpeed 10.557320192285
scalar Scenario.node[7].veinsmobility totalDistance 2743.0110633656
scalar Scenario.node[7].veinsmobility totalCO2Emission 73.108748344345
scalar Scenario.node[8].appl generatedWSMs 0
scalar Scenario.node[8].appl receivedWSMs 0
scalar Scenario.node[8].appl generatedBSMs 0
scalar Scenario.node[8].appl receivedBSMs 0
scalar Scenario.node[8].appl generatedWSAs 0
scalar Scenario.node[8].appl receivedWSAs 0
scalar Scenario.node[8].nic.phy80211p busyTime 0
scalar Scenario.node[8].nic.mac1609_4 ReceivedUnicastPackets 0
scalar Scenario.node[8].nic.mac1609_4 ReceivedBroadcasts 0
scalar Scenario.node[8].nic.mac1609_4 SentPackets 0
scalar Scenario.node[8].nic.mac1609_4 SentAcknowledgements 0
scalar Scenario.node[8].nic.mac1609_4 RetriesExceeded 0
scalar Scenario.node[8].nic.mac1609_4 SNIRLostPackets 0
scalar Scenario.node[8].nic.mac1609_4 RXTXLostPackets 0
scalar Scenario.node[8].nic.mac1609_4 TotalLostPackets 0
scalar Scenario.node[8].nic.mac1609_4 DroppedPacketsInMac 0
scalar Scenario.node[8].nic.mac1609_4 TooLittleTime 0
scalar Scenario.node[8].nic.mac1609_4 TimesIntoBackoff 0
scalar Scenario.node[8].nic.mac1609_4 SlotsBackoff 0
scalar Scenario.node[8].nic.mac1609_4 NumInternalContention 0
scalar Scenario.node[8].nic.mac1609_4 totalBusyTime 0
scalar Scenario.node[8].nic.mac1609_4 retriesExceeded:count 0
attr source org_car2x_veins_modules_mac_sigRetriesExceeded
scalar Scenario.node[8].nic.mac1609_4 sentAcks:count 0
attr source org_car2x_veins_modules_mac_sigSentAck
scalar Scenario.node[8].nic.mac1609_4 sentPackets:count 0
attr source org_car2x_veins_modules_mac_sigSentPacket
scalar Scenario.node[8].nic.mac1609_4 collisions:count 0
attr source org_car2x_veins_modules_mac_sigCollision
scalar Scenario.node[8].nic.mac1609_4 channelBusy:timeavg 0
attr source org_car2x_veins_modules_mac_sigChannelBusy
scalar Scenario.node[8].veinsmobility startTime 28
scalar Scenario.node[8].veinsmobility totalTime 30
scalar Scenario.node[8].veinsmobility stopTime 59
scalar Scenario.node[8].veinsmobility minSpeed 1.0202541800766
scalar Scenario.node[8].veinsmobility maxSpeed 12.832604750429
scalar Scenario.node[8].veinsmobility totalDistance 2654.1608814086
scalar Scenario.node[8].veinsmobility totalCO2Emission 78.935575203147
scalar Scenario.node[10].appl generatedWSMs 0
scalar Scenario.node[10].appl receivedWSMs 0
scalar Scenario.node[10].appl generatedBSMs 0
scalar Scenario.node[10].appl receivedBSMs 0
scalar Scenario.node[10].appl generatedWSAs 0
scalar Scenario.node[10].appl receivedWSAs 0
scalar Scenario.node[10].nic.phy80211p busyTime 0
scalar Scenario.node[10].nic.mac1609_4 ReceivedUnicastPackets 0
scalar Scenario.node[10].nic.mac1609_4 ReceivedBroadcasts 0
scalar Scenario.node[10].nic.mac1609_4 SentPackets 0
scalar Scenario.node[10].nic.mac1609_4 SentAcknowledgements 0
scalar Scenario.node[10].nic.mac1609_4 RetriesExceeded 0
scalar Scenario.node[10].nic.mac1609_4 SNIRLostPackets 0
scalar Scenario.node[10].nic.mac1609_4 RXTXLostPackets 0
scalar Scenario.node[10].nic.mac1609_4 TotalLostPackets 0
scalar Scenario.node[10].nic.mac1609_4 DroppedPacketsInMac 0
scalar Scenario.node[10].nic.mac1609_4 TooLittleTime 0
scalar Scenario.node[10].nic.mac1609_4 TimesIntoBackoff 0
scalar Scenario.node[10].nic.mac1609_4 SlotsBackoff 0
scalar Scenario.node[10].nic.mac1609_4 NumInternalContention 0
scalar Scenario.node[10].nic.mac1609_4 totalBusyTime 0
scalar Scenario.node[10].nic.mac1609_4 retriesExceeded:count 0
attr source org_car2x_veins_modules_mac_sigRetriesExceeded
scalar Scenario.node[10].nic.mac1609_4 sentAcks:count 0
attr source org_car2x_veins_modules_mac_sigSentAck
scalar Scenario.node[10].nic.mac1609_4 sentPackets:count 0
attr source org_car2x_veins_modules_mac_sigSentPacket
scalar Scenario.node[10].nic.mac1609_4 collisions:count 0
attr source org_car2x_veins_modules_mac_sigCollision
scalar Scenario.node[10].nic.mac1609_4 channelBusy:timeavg 0
attr source org_car2x_veins_modules_mac_sigChannelBusy
scalar Scenario.node[10].veinsmobility startTime 31
scalar Scenario.node[10].veinsmobility totalTime 29
scalar Scenario.node[10].veinsmobility stopTime 61
scalar Scenario.node[10].veinsmobility minSpeed 1.1601757370042
scalar Scenario.node[10].veinsmobility maxSpeed 12.586084399173
scalar Scenario.node[10].veinsmobility totalDistance 2674.3535333216
scalar Scenario.node[10].veinsmobility totalCO2Emission 77.978221735072
scalar Scenario.node[12].appl generatedWSMs 0
scalar Scenario.node[12].appl receivedWSMs 0
scalar Scenario.node[12].appl generatedBSMs 0
scalar Scenario.node[12].appl receivedBSMs 0
scalar Scenario.node[12].appl generatedWSAs 0
scalar Scenario.node[12].appl receivedWSAs 0
scalar Scenario.node[12].nic.phy80211p busyTime 0
scalar Scenario.node[12].nic.mac1609_4 ReceivedUnicastPackets 0
scalar Scenario.node[12].nic.mac1609_4 ReceivedBroadcasts 0
scalar Scenario.node[12].nic.mac1609_4 SentPackets 0
scalar Scenario.node[12].nic.mac1609_4 SentAcknowledgements 0
scalar Scenario.node[12].nic.mac1609_4 RetriesExceeded 0
scalar Scenario.node[12].nic.mac1609_4 SNIRLostPackets 0
scalar Scenario.node[12].nic.mac1609_4 RXTXLostPackets 0
scalar Scenario.node[12].nic.mac1609_4 TotalLostPackets 0
scalar Scenario.node[12].nic.mac1609_4 DroppedPacketsInMac 0
scalar Scenario.node[12].nic.mac1609_4 TooLittleTime 0
scalar Scenario.node[12].nic.mac1609_4 TimesIntoBackoff 0
scalar Scenario.node[12].nic.mac1609_4 SlotsBackoff 0
scalar Scenario.node[12].nic.mac1609_4 NumInternalContention 0
scalar Scenario.node[12].nic.mac1609_4 totalBusyTime 0
scalar Scenario.node[12].nic.mac1609_4 retriesExceeded:count 0
attr source org_car2x_veins_modules_mac_sigRetriesExceeded
scalar Scenario.node[12].nic.mac1609_4 sentAcks:count 0
attr source org_car2x_veins_modules_mac_sigSentAck
scalar Scenario.node[12].nic.mac1609_4 sentPackets:count 0
attr source org_car2x_veins_modules_mac_sigSentPacket
scalar Scenario.node[12].nic.mac1609_4 collisions:count 0
attr source org_car2x_veins_modules_mac_sigCollision
scalar Scenario.node[12].nic.mac1609_4 channelBusy:timeavg 0
attr source org_car2x_veins_modules_mac_sigChannelBusy
scalar Scenario.node[12].veinsmobility startTime 35
scalar Scenario.node[12].veinsmobility totalTime 27
scalar Scenario.node[12].veinsmobility stopTime 63
scalar Scenario.node[12].veinsmobility minSpeed 1.3379001913592
scalar Scenario.node[12].veinsmobility maxSpeed 14.35826715287
scalar Scenario.node[12].veinsmobility totalDistance 2714.298881917
scalar Scenario.node[12].veinsmobility totalCO2Emission 88.115774842498
scalar Scenario.node[5].appl generatedWSMs 0
scalar Scenario.node[5].appl receivedWSMs 0
scalar Scenario.node[5].appl generatedBSMs 0
scalar Scenario.node[5].appl receivedBSMs 0
scalar Scenario.node[5].appl generatedWSAs 0
scalar Scenario.node[5].appl receivedWSAs 0
scalar Scenario.node[5].nic.phy80211p busyTime 0
scalar Scenario.node[5].nic.mac1609_4 ReceivedUnicastPackets 0
scalar Scenario.node[5].nic.mac1609_4 ReceivedBroadcasts 0
scalar Scenario.node[5].nic.mac1609_4 SentPackets 0
scalar Scenario.node[5].nic.mac1609_4 SentAcknowledgements 0
scalar Scenario.node[5].nic.mac1609_4 RetriesExceeded 0
scalar Scenario.node[5].nic.mac1609_4 SNIRLostPackets 0
scalar Scenario.node[5].nic.mac1609_4 RXTXLostPackets 0
scalar Scenario.node[5].nic.mac1609_4 TotalLostPackets 0
scalar Scenario.node[5].nic.mac1609_4 DroppedPacketsInMac 0
scalar Scenario.node[5].nic.mac1609_4 TooLittleTime 0
scalar Scenario.node[5].nic.mac1609_4 TimesIntoBackoff 0
scalar Scenario.node[5].nic.mac1609_4 SlotsBackoff 0
scalar Scenario.node[5].nic.mac1609_4 NumInternalContention 0
scalar Scenario.node[5].nic.mac1609_4 totalBusyTime 0
scalar Scenario.node[5].nic.mac1609_4 retriesExceeded:count 0
attr source org_car2x_veins_modules_mac_sigRetriesExceeded
scalar Scenario.node[5].nic.mac1609_4 sentAcks:count 0
attr source org_car2x_veins_modules_mac_sigSentAck
scalar Scenario.node[5].nic.mac1609_4 sentPackets:count 0
attr source org_car2x_veins_modules_mac_sigSentPacket
scalar Scenario.node[5].nic.mac1609_4 collisions:count 0
attr source org_car2x_veins_modules_mac_sigCollision
scalar Scenario.node[5].nic.mac1609_4 channelBusy:timeavg 0
attr source org_car2x_veins_modules_mac_sigChannelBusy
scalar Scenario.node[5].veinsmobility startTime 19
scalar Scenario.node[5].veinsmobility totalTime 46
scalar Scenario.node[5].veinsmobility stopTime 66
scalar Scenario.node[5].veinsmobility minSpeed 0
scalar Scenario.node[5].veinsmobility maxSpeed 12.925542472173
scalar Scenario.node[5].veinsmobility totalDistance 2728.3135590431
scalar Scenario.node[5].veinsmobility totalCO2Emission 108.94538433469
scalar Scenario.node[16].appl generatedWSMs 0
scalar Scenario.node[16].appl receivedWSMs 0
scalar Scenario.node[16].appl generatedBSMs 0
scalar Scenario.node[16].appl receivedBSMs 0
scalar Scenario.node[16].appl generatedWSAs 0
scalar Scenario.node[16].appl receivedWSAs 0
scalar Scenario.node[16].nic.phy80211p busyTime 0
scalar Scenario.node[16].nic.mac1609_4 ReceivedUnicastPackets 0
scalar Scenario.node[16].nic.mac1609_4 ReceivedBroadcasts 0
scalar Scenario.node[16].nic.mac1609_4 SentPackets 0
scalar Scenario.node[16].nic.mac1609_4 SentAcknowledgements 0
scalar Scenario.node[16].nic.mac1609_4 RetriesExceeded 0
scalar Scenario.node[16].nic.mac1609_4 SNIRLostPackets 0
scalar Scenario.node[16].nic.mac1609_4 RXTXLostPackets 0
scalar Scenario.node[16].nic.mac1609_4 TotalLostPackets 0
scalar Scenario.node[16].nic.mac1609_4 DroppedPacketsInMac 0
scalar Scenario.node[16].nic.mac1609_4 TooLittleTime 0
scalar Scenario.node[16].nic.mac1609_4 TimesIntoBackoff 0
scalar Scenario.node[16].nic.mac1609_4 SlotsBackoff 0
scalar Scenario.node[16].nic.mac1609_4 NumInternalContention 0
scalar Scenario.node[16].nic.mac1609_4 totalBusyTime 0
scalar Scenario.node[16].nic.mac1609_4 retriesExceeded:count 0
attr source org_car2x_veins_modules_mac_sigRetriesExceeded
scalar Scenario.node[16].nic.mac1609_4 sentAcks:count 0
attr source org_car2x_veins_modules_mac_sigSentAck
scalar Scenario.node[16].nic.mac1609_4 sentPackets:count 0
attr source org_car2x_veins_modules_mac_sigSentPacket
scalar Scenario.node[16].nic.mac1609_4 collisions:count 0
attr source org_car2x_veins_modules_mac_sigCollision
scalar Scenario.node[16].nic.mac1609_4 channelBusy:timeavg 0
attr source org_car2x_veins_modules_mac_sigChannelBusy
scalar Scenario.node[16].veinsmobility startTime 44
scalar Scenario.node[16].veinsmobility totalTime 23
scalar Scenario.node[16].veinsmobility stopTime 68
scalar Scenario.node[16].veinsmobility minSpeed 2.1882217634469
scalar Scenario.node[16].veinsmobility maxSpeed 15.360580664461
scalar Scenario.node[16].veinsmobility totalDistance 2738.6578383868
scalar Scenario.node[16].veinsmobility totalCO2Emission 80.362127699256
scalar Scenario.node[18].appl generatedWSMs 0
scalar Scenario.node[18].appl receivedWSMs 0
scalar Scenario.node[18].appl generatedBSMs 0
scalar Scenario.node[18].appl receivedBSMs 0
scalar Scenario.node[18].appl generatedWSAs 0
scalar Scenario.node[18].appl receivedWSAs 0
scalar Scenario.node[18].nic.phy80211p busyTime 0
scalar Scenario.node[18].nic.mac1609_4 ReceivedUnicastPackets 0
scalar Scenario.node[18].nic.mac1609_4 ReceivedBroadcasts 0
scalar Scenario.node[18].nic.mac1609_4 SentPackets 0
scalar Scenario.node[18].nic.mac1609_4 SentAcknowledgements 0
scalar Scenario.node[18].nic.mac1609_4 RetriesExceeded 0
scalar Scenario.node[18].nic.mac1609_4 SNIRLostPackets 0
scalar Scenario.node[18].nic.mac1609_4 RXTXLostPackets 0
scalar Scenario.node[18].nic.mac1609_4 TotalLostPackets 0
scalar Scenario.node[18].nic.mac1609_4 DroppedPacketsInMac 0
scalar Scenario.node[18].nic.mac1609_4 TooLittleTime 0
scalar Scenario.node[18].nic.mac1609_4 TimesIntoBackoff 0
scalar Scenario.node[18].nic.mac1609_4 SlotsBackoff 0
scalar Scenario.node[18].nic.mac1609_4 NumInternalContention 0
scalar Scenario.node[18].nic.mac1609_4 totalBusyTime 0
scalar Scenario.node[18].nic.mac1609_4 retriesExceeded:count 0
attr source org_car2x_veins_modules_mac_sigRetriesExceeded
scalar Scenario.node[18].nic.mac1609_4 sentAcks:count 0
attr source org_car2x_veins_modules_mac_sigSentAck
scalar Scenario.node[18].nic.mac1609_4 sentPackets:count 0
attr source org_car2x_veins_modules_mac_sigSentPacket
scalar Scenario.node[18].nic.mac1609_4 collisions:count 0
attr source org_car2x_veins_modules_mac_sigCollision
scalar Scenario.node[18].nic.mac1609_4 channelBusy:timeavg 0
attr source org_car2x_veins_modules_mac_sigChannelBusy
scalar Scenario.node[18].veinsmobility startTime 47
scalar Scenario.node[18].veinsmobility totalTime 21
scalar Scenario.node[18].veinsmobility stopTime 69
scalar Scenario.node[18].veinsmobility minSpeed 2.2363538199803
scalar Scenario.node[18].veinsmobility maxSpeed 16.362176729299
scalar Scenario.node[18].veinsmobility totalDistance 2623.064265155
scalar Scenario.node[18].veinsmobility totalCO2Emission 80.4767055158
scalar Scenario.node[20].appl generatedWSMs 0
scalar Scenario.node[20].appl receivedWSMs 0
scalar Scenario.node[20].appl generatedBSMs 0
scalar Scenario.node[20].appl receivedBSMs 0
scalar Scenario.node[20].appl generatedWSAs 0
scalar Scenario.node[20].appl receivedWSAs 0
scalar Scenario.node[20].nic.phy80211p busyTime 0
scalar Scenario.node[20].nic.mac1609_4 ReceivedUnicastPackets 0
scalar Scenario.node[20].nic.mac1609_4 ReceivedBroadcasts 0
scalar Scenario.node[20].nic.mac1609_4 SentPackets 0
scalar Scenario.node[20].nic.mac1609_4 SentAcknowledgements 0
scalar Scenario.node[20].nic.mac1609_4 RetriesExceeded 0
scalar Scenario.node[20].nic.mac1609_4 SNIRLostPackets 0
scalar Scenario.node[20].nic.mac1609_4 RXTXLostPackets 0
scalar Scenario.node[20].nic.mac1609_4 TotalLostPackets 0
scalar Scenario.node[20].nic.mac1609_4 DroppedPacketsInMac 0
scalar Scenario.node[20].nic.mac1609_4 TooLittleTime 0
scalar Scenario.node[20].nic.mac1609_4 TimesIntoBackoff 0
scalar Scenario.node[20].nic.mac1609_4 SlotsBackoff 0
scalar Scenario.node[20].nic.mac1609_4 NumInternalContention 0
scalar Scenario.node[20].nic.mac1609_4 totalBusyTime 0
scalar Scenario.node[20].nic.mac1609_4 retriesExceeded:count 0
attr source org_car2x_veins_modules_mac_sigRetriesExceeded
scalar Scenario.node[20].nic.mac1609_4 sentAcks:count 0
attr source org_car2x_veins_modules_mac_sigSentAck
scalar Scenario.node[20].nic.mac1609_4 sentPackets:count 0
attr source org_car2x_veins_modules_mac_sigSentPacket
scalar Scenario.node[20].nic.mac1609_4 collisions:count 0
attr source org_car2x_veins_modules_mac_sigCollision
scalar Scenario.node[20].nic.mac1609_4 channelBusy:timeavg 0
attr source org_car2x_veins_modules_mac_sigChannelBusy
scalar Scenario.node[20].veinsmobility startTime 50
scalar Scenario.node[20].veinsmobility totalTime 26
scalar Scenario.node[20].veinsmobility stopTime 77
scalar Scenario.node[20].veinsmobility minSpeed 2.369301540032
scalar Scenario.node[20].veinsmobility maxSpeed 12.244265754259
scalar Scenario.node[20].veinsmobility totalDistance 2635.707338128
scalar Scenario.node[20].veinsmobility totalCO2Emission 65.353108659958
scalar Scenario.node[22].appl generatedWSMs 0
scalar Scenario.node[22].appl receivedWSMs 0
scalar Scenario.node[22].appl generatedBSMs 0
scalar Scenario.node[22].appl receivedBSMs 0
scalar Scenario.node[22].appl generatedWSAs 0
scalar Scenario.node[22].appl receivedWSAs 0
scalar Scenario.node[22].nic.phy80211p busyTime 0
scalar Scenario.node[22].nic.mac1609_4 ReceivedUnicastPackets 0
scalar Scenario.node[22].nic.mac1609_4 ReceivedBroadcasts 0
scalar Scenario.node[22].nic.mac1609_4 SentPackets 0
scalar Scenario.node[22].nic.mac1609_4 SentAcknowledgements 0
scalar Scenario.node[22].nic.mac1609_4 RetriesExceeded 0
scalar Scenario.node[22].nic.mac1609_4 SNIRLostPackets 0
scalar Scenario.node[22].nic.mac1609_4 RXTXLostPackets 0
scalar Scenario.node[22].nic.mac1609_4 TotalLostPackets 0
scalar Scenario.node[22].nic.mac1609_4 DroppedPacketsInMac 0
scalar Scenario.node[22].nic.mac1609_4 TooLittleTime 0
scalar Scenario.node[22].nic.mac1609_4 TimesIntoBackoff 0
scalar Scenario.node[22].nic.mac1609_4 SlotsBackoff 0
scalar Scenario.node[22].nic.mac1609_4 NumInternalContention 0
scalar Scenario.node[22].nic.mac1609_4 totalBusyTime 0
scalar Scenario.node[22].nic.mac1609_4 retriesExceeded:count 0
attr source org_car2x_veins_modules_mac_sigRetriesExceeded
scalar Scenario.node[22].nic.mac1609_4 sentAcks:count 0
attr source org_car2x_veins_modules_mac_sigSentAck
scalar Scenario.node[22].nic.mac1609_4 sentPackets:count 0
attr source org_car2x_veins_modules_mac_sigSentPacket
scalar Scenario.node[22].nic.mac1609_4 collisions:count 0
attr source org_car2x_veins_modules_mac_sigCollision
scalar Scenario.node[22].nic.mac1609_4 channelBusy:timeavg 0
attr source org_car2x_veins_modules_mac_sigChannelBusy
scalar Scenario.node[22].veinsmobility startTime 54
scalar Scenario.node[22].veinsmobility totalTime 31
scalar Scenario.node[22].veinsmobility stopTime 86
scalar Scenario.node[22].veinsmobility minSpeed 2.2531933091814
scalar Scenario.node[22].veinsmobility maxSpeed 10.381962845181
scalar Scenario.node[22].veinsmobility totalDistance 2734.1520943205
scalar Scenario.node[22].veinsmobility totalCO2Emission 69.811577059619
scalar Scenario.node[24].appl generatedWSMs 0
scalar Scenario.node[24].appl receivedWSMs 0
scalar Scenario.node[24].appl generatedBSMs 0
scalar Scenario.node[24].appl receivedBSMs 0
scalar Scenario.node[24].appl generatedWSAs 0
scalar Scenario.node[24].appl receivedWSAs 0
scalar Scenario.node[24].nic.phy80211p busyTime 0
scalar Scenario.node[24].nic.mac1609_4 ReceivedUnicastPackets 0
scalar Scenario.node[24].nic.mac1609_4 ReceivedBroadcasts 0
scalar Scenario.node[24].nic.mac1609_4 SentPackets 0
scalar Scenario.node[24].nic.mac1609_4 SentAcknowledgements 0
scalar Scenario.node[24].nic.mac1609_4 RetriesExceeded 0
scalar Scenario.node[24].nic.mac1609_4 SNIRLostPackets 0
scalar Scenario.node[24].nic.mac1609_4 RXTXLostPackets 0
scalar Scenario.node[24].nic.mac1609_4 TotalLostPackets 0
scalar Scenario.node[24].nic.mac1609_4 DroppedPacketsInMac 0
scalar Scenario.node[24].nic.mac1609_4 TooLittleTime 0
scalar Scenario.node[24].nic.mac1609_4 TimesIntoBackoff 0
scalar Scenario.node[24].nic.mac1609_4 SlotsBackoff 0
scalar Scenario.node[24].nic.mac1609_4 NumInternalContention 0
scalar Scenario.node[24].nic.mac1609_4 totalBusyTime 0
scalar Scenario.node[24].nic.mac1609_4 retriesExceeded:count 0
attr source org_car2x_veins_modules_mac_sigRetriesExceeded
scalar Scenario.node[24].nic.mac1609_4 sentAcks:count 0
attr source org_car2x_veins_modules_mac_sigSentAck
scalar Scenario.node[24].nic.mac1609_4 sentPackets:count 0
attr source org_car2x_veins_modules_mac_sigSentPacket
scalar Scenario.node[24].nic.mac1609_4 collisions:count 0
attr source org_car2x_veins_modules_mac_sigCollision
scalar Scenario.node[24].nic.mac1609_4 channelBusy:timeavg 0
attr source org_car2x_veins_modules_mac_sigChannelBusy
scalar Scenario.node[24].veinsmobility startTime 57
scalar Scenario.node[24].veinsmobility totalTime 29
scalar Scenario.node[24].veinsmobility stopTime 87
scalar Scenario.node[24].veinsmobility minSpeed 2.0226540115895
scalar Scenario.node[24].veinsmobility maxSpeed 12.674778477953
scalar Scenario.node[24].veinsmobility totalDistance 2641.3637099155
scalar Scenario.node[24].veinsmobility totalCO2Emission 78.567336408594
scalar Scenario.node[25].appl generatedWSMs 0
scalar Scenario.node[25].appl receivedWSMs 0
scalar Scenario.node[25].appl generatedBSMs 0
scalar Scenario.node[25].appl receivedBSMs 0
scalar Scenario.node[25].appl generatedWSAs 0
scalar Scenario.node[25].appl receivedWSAs 0
scalar Scenario.node[25].nic.phy80211p busyTime 0
scalar Scenario.node[25].nic.mac1609_4 ReceivedUnicastPackets 0
scalar Scenario.node[25].nic.mac1609_4 ReceivedBroadcasts 0
scalar Scenario.node[25].nic.mac1609_4 SentPackets 0
scalar Scenario.node[25].nic.mac1609_4 SentAcknowledgements 0
scalar Scenario.node[25].nic.mac1609_4 RetriesExceeded 0
scalar Scenario.node[25].nic.mac1609_4 SNIRLostPackets 0
scalar Scenario.node[25].nic.mac1609_4 RXTXLostPackets 0
scalar Scenario.node[25].nic.mac1609_4 TotalLostPackets 0
scalar Scenario.node[25].nic.mac1609_4 DroppedPacketsInMac 0
scalar Scenario.node[25].nic.mac1609_4 TooLittleTime 0
scalar Scenario.node[25].nic.mac1609_4 TimesIntoBackoff 0
scalar Scenario.node[25].nic.mac1609_4 SlotsBackoff 0
scalar Scenario.node[25].nic.mac1609_4 NumInternalContention 0
scalar Scenario.node[25].nic.mac1609_4 totalBusyTime 0
scalar Scenario.node[25].nic.mac1609_4 retriesExceeded:count 0
attr source org_car2x_veins_modules_mac_sigRetriesExceeded
scalar Scenario.node[25].nic.mac1609_4 sentAcks:count 0
attr source org_car2x_veins_modules_mac_sigSentAck
scalar Scenario.node[25].nic.mac1609_4 sentPackets:count 0
attr source org_car2x_veins_modules_mac_sigSentPacket
scalar Scenario.node[25].nic.mac1609_4 collisions:count 0
attr source org_car2x_veins_modules_mac_sigCollision
scalar Scenario.node[25].nic.mac1609_4 channelBusy:timeavg 0
attr source org_car2x_veins_modules_mac_sigChannelBusy
scalar Scenario.node[25].veinsmobility startTime 60
scalar Scenario.node[25].veinsmobility totalTime 28
scalar Scenario.node[25].veinsmobility stopTime 89
scalar Scenario.node[25].veinsmobility minSpeed 1.5375984618207
scalar Scenario.node[25].veinsmobility maxSpeed 14.940498508006
scalar Scenario.node[25].veinsmobility totalDistance 2674.7084885107
scalar Scenario.node[25].veinsmobility totalCO2Emission 83.623836117226
scalar Scenario.node[26].appl generatedWSMs 0
scalar Scenario.node[26].appl receivedWSMs 0
scalar Scenario.node[26].appl generatedBSMs 0
scalar Scenario.node[26].appl receivedBSMs 0
scalar Scenario.node[26].appl generatedWSAs 0
scalar Scenario.node[26].appl receivedWSAs 0
scalar Scenario.node[26].nic.phy80211p busyTime 0
scalar Scenario.node[26].nic.mac1609_4 ReceivedUnicastPackets 0
scalar Scenario.node[26].nic.mac1609_4 ReceivedBroadcasts 0
scalar Scenario.node[26].nic.mac1609_4 SentPackets 0
scalar Scenario.node[26].nic.mac1609_4 SentAcknowledgements 0
scalar Scenario.node[26].nic.mac1609_4 RetriesExceeded 0
scalar Scenario.node[26].nic.mac1609_4 SNIRLostPackets 0
scalar Scenario.node[26].nic.mac1609_4 RXTXLostPackets 0
scalar Scenario.node[26].nic.mac1609_4 TotalLostPackets 0
scalar Scenario.node[26].nic.mac1609_4 DroppedPacketsInMac 0
scalar Scenario.node[26].nic.mac1609_4 TooLittleTime 0
scalar Scenario.node[26].nic.mac1609_4 TimesIntoBackoff 0
scalar Scenario.node[26].nic.mac1609_4 SlotsBackoff 0
scalar Scenario.node[26].nic.mac1609_4 NumInternalContention 0
scalar Scenario.node[26].nic.mac1609_4 totalBusyTime 0
scalar Scenario.node[26].nic.mac1609_4 retriesExceeded:count 0
attr source org_car2x_veins_modules_mac_sigRetriesExceeded
scalar Scenario.node[26].nic.mac1609_4 sentAcks:count 0
attr source org_car2x_veins_modules_mac_sigSentAck
scalar Scenario.node[26].nic.mac1609_4 sentPackets:count 0
attr source org_car2x_veins_modules_mac_sigSentPacket
scalar Scenario.node[26].nic.mac1609_4 collisions:count 0
attr source org_car2x_veins_modules_mac_sigCollision
scalar Scenario.node[26].nic.mac1609_4 channelBusy:timeavg 0
attr source org_car2x_veins_modules_mac_sigChannelBusy
scalar Scenario.node[26].veinsmobility startTime 63
scalar Scenario.node[26].veinsmobility totalTime 27
scalar Scenario.node[26].veinsmobility stopTime 91
scalar Scenario.node[26].veinsmobility minSpeed 1.8769185636193
scalar Scenario.node[26].veinsmobility maxSpeed 13.563917389549
scalar Scenario.node[26].veinsmobility totalDistance 2704.4943011714
scalar Scenario.node[26].veinsmobility totalCO2Emission 88.973779397159
scalar Scenario.node[27].appl generatedWSMs 0
scalar Scenario.node[27].appl receivedWSMs 0
scalar Scenario.node[27].appl generatedBSMs 0
scalar Scenario.node[27].appl receivedBSMs 0
scalar Scenario.node[27].appl generatedWSAs 0
scalar Scenario.node[27].appl receivedWSAs 0
scalar Scenario.node[27].nic.phy80211p busyTime 0
scalar Scenario.node[27].nic.mac1609_4 ReceivedUnicastPackets 0
scalar Scenario.node[27].nic.mac1609_4 ReceivedBroadcasts 0
scalar Scenario.node[27].nic.mac1609_4 SentPackets 0
scalar Scenario.node[27].nic.mac1609_4 SentAcknowledgements 0
scalar Scenario.node[27].nic.mac1609_4 RetriesExceeded 0
scalar Scenario.node[27].nic.mac1609_4 SNIRLostPackets 0
scalar Scenario.node[27].nic.mac1609_4 RXTXLostPackets 0
scalar Scenario.node[27].nic.mac1609_4 TotalLostPackets 0
scalar Scenario.node[27].nic.mac1609_4 DroppedPacketsInMac 0
scalar Scenario.node[27].nic.mac1609_4 TooLittleTime 0
scalar Scenario.node[27].nic.mac1609_4 TimesIntoBackoff 0
scalar Scenario.node[27].nic.mac1609_4 SlotsBackoff 0
scalar Scenario.node[27].nic.mac1609_4 NumInternalContention 0
scalar Scenario.node[27].nic.mac1609_4 totalBusyTime 0
scalar Scenario.node[27].nic.mac1609_4 retriesExceeded:count 0
attr source org_car2x_veins_modules_mac_sigRetriesExceeded
scalar Scenario.node[27].nic.mac1609_4 sentAcks:count 0
attr source org_car2x_veins_modules_mac_sigSentAck
scalar Scenario.node[27].nic.mac1609_4 sentPackets:count 0
attr source org_car2x_veins_modules_mac_sigSentPacket
scalar Scenario.node[27].nic.mac1609_4 collisions:count 0
attr source org_car2x_veins_modules_mac_sigCollision
scalar Scenario.node[27].nic.mac1609_4 channelBusy:timeavg 0
attr source org_car2x_veins_modules_mac_sigChannelBusy
scalar Scenario.node[27].veinsmobility startTime 66
scalar Scenario.node[27].veinsmobility totalTime 26
scalar Scenario.node[27].veinsmobility stopTime 93
scalar Scenario.node[27].veinsmobility minSpeed 1.8612768378574
scalar Scenario.node[27].veinsmobility maxSpeed 14.151171878515
scalar Scenario.node[27].veinsmobility totalDistance 2738.9217173281
scalar Scenario.node[27].veinsmobility totalCO2Emission 85.140306676704
scalar Scenario.node[29].appl generatedWSMs 0
scalar Scenario.node[29].appl receivedWSMs 0
scalar Scenario.node[29].appl generatedBSMs 0
scalar Scenario.node[29].appl receivedBSMs 0
scalar Scenario.node[29].appl generatedWSAs 0
scalar Scenario.node[29].appl receivedWSAs 0
scalar Scenario.node[29].nic.phy80211p busyTime 0
scalar Scenario.node[29].nic.mac1609_4 ReceivedUnicastPackets 0
scalar Scenario.node[29].nic.mac1609_4 ReceivedBroadcasts 0
scalar Scenario.node[29].nic.mac1609_4 SentPackets 0
scalar Scenario.node[29].nic.mac1609_4 SentAcknowledgements 0
scalar Scenario.node[29].nic.mac1609_4 RetriesExceeded 0
scalar Scenario.node[29].nic.mac1609_4 SNIRLostPackets 0
scalar Scenario.node[29].nic.mac1609_4 RXTXLostPackets 0
scalar Scenario.node[29].nic.mac1609_4 TotalLostPackets 0
scalar Scenario.node[29].nic.mac1609_4 DroppedPacketsInMac 0
scalar Scenario.node[29].nic.mac1609_4 TooLittleTime 0
scalar Scenario.node[29].nic.mac1609_4 TimesIntoBackoff 0
scalar Scenario.node[29].nic.mac1609_4 SlotsBackoff 0
scalar Scenario.node[29].nic.mac1609_4 NumInternalContention 0
scalar Scenario.node[29].nic.mac1609_4 totalBusyTime 0
scalar Scenario.node[29].nic.mac1609_4 retriesExceeded:count 0
attr source org_car2x_veins_modules_mac_sigRetriesExceeded
scalar Scenario.node[29].nic.mac1609_4 sentAcks:count 0
attr source org_car2x_veins_modules_mac_sigSentAck
scalar Scenario.node[29].nic.mac1609_4 sentPackets:count 0
attr source org_car2x_veins_modules_mac_sigSentPacket
scalar Scenario.node[29].nic.mac1609_4 collisions:count 0
attr source org_car2x_veins_modules_mac_sigCollision
scalar Scenario.node[29].nic.mac1609_4 channelBusy:timeavg 0
attr source org_car2x_veins_modules_mac_sigChannelBusy
scalar Scenario.node[29].veinsmobility startTime 69
scalar Scenario.node[29].veinsmobility totalTime 24
scalar Scenario.node[29].veinsmobility stopTime 94
scalar Scenario.node[29].veinsmobility minSpeed 2.5611636193004
scalar Scenario.node[29].veinsmobility maxSpeed 14.337386969378
scalar Scenario.node[29].veinsmobility totalDistance 2631.1095863701
scalar Scenario.node[29].veinsmobility totalCO2Emission 86.254715212273
scalar Scenario.node[30].appl generatedWSMs 0
scalar Scenario.node[30].appl receivedWSMs 0
scalar Scenario.node[30].appl generatedBSMs 0
scalar Scenario.node[30].appl receivedBSMs 0
scalar Scenario.node[30].appl generatedWSAs 0
scalar Scenario.node[30].appl receivedWSAs 0
scalar Scenario.node[30].nic.phy80211p busyTime 0
scalar Scenario.node[30].nic.mac1609_4 ReceivedUnicastPackets 0
scalar Scenario.node[30].nic.mac1609_4 ReceivedBroadcasts 0
scalar Scenario.node[30].nic.mac1609_4 SentPackets 0
scalar Scenario.node[30].nic.mac1609_4 SentAcknowledgements 0
scalar Scenario.node[30].nic.mac1609_4 RetriesExceeded 0
scalar Scenario.node[30].nic.mac1609_4 SNIRLostPackets 0
scalar Scenario.node[30].nic.mac1609_4 RXTXLostPackets 0
scalar Scenario.node[30].nic.mac1609_4 TotalLostPackets 0
scalar Scenario.node[30].nic.mac1609_4 DroppedPacketsInMac 0
scalar Scenario.node[30].nic.mac1609_4 TooLittleTime 0
scalar Scenario.node[30].nic.mac1609_4 TimesIntoBackoff 0
scalar Scenario.node[30].nic.mac1609_4 SlotsBackoff 0
scalar Scenario.node[30].nic.mac1609_4 NumInternalContention 0
scalar Scenario.node[30].nic.mac1609_4 totalBusyTime 0
scalar Scenario.node[30].nic.mac1609_4 retriesExceeded:count 0
attr source org_car2x_veins_modules_mac_sigRetriesExceeded
scalar Scenario.node[30].nic.mac1609_4 sentAcks:count 0
attr source org_car2x_veins_modules_mac_sigSentAck
scalar Scenario.node[30].nic.mac1609_4 sentPackets:count 0
attr source org_car2x_veins_modules_mac_sigSentPacket
scalar Scenario.node[30].nic.mac1609_4 collisions:count 0
attr source org_car2x_veins_modules_mac_sigCollision
scalar Scenario.node[30].nic.mac1609_4 channelBusy:timeavg 0
attr source org_car2x_veins_modules_mac_sigChannelBusy
scalar Scenario.node[30].veinsmobility startTime 72
scalar Scenario.node[30].veinsmobility totalTime 23
scalar Scenario.node[30].veinsmobility stopTime 96
scalar Scenario.node[30].veinsmobility minSpeed 1.9273016948951
scalar Scenario.node[30].veinsmobility maxSpeed 14.535345600344
scalar Scenario.node[30].veinsmobility totalDistance 2627.8202631321
scalar Scenario.node[30].veinsmobility totalCO2Emission 71.321996838252
scalar Scenario.node[32].appl generatedWSMs 0
scalar Scenario.node[32].appl receivedWSMs 0
scalar Scenario.node[32].appl generatedBSMs 0
scalar Scenario.node[32].appl receivedBSMs 0
scalar Scenario.node[32].appl generatedWSAs 0
scalar Scenario.node[32].appl receivedWSAs 0
scalar Scenario.node[32].nic.phy80211p busyTime 0
scalar Scenario.node[32].nic.mac1609_4 ReceivedUnicastPackets 0
scalar Scenario.node[32].nic.mac1609_4 ReceivedBroadcasts 0
scalar Scenario.node[32].nic.mac1609_4 SentPackets 0
scalar Scenario.node[32].nic.mac1609_4 SentAcknowledgements 0
scalar Scenario.node[32].nic.mac1609_4 RetriesExceeded 0
scalar Scenario.node[32].nic.mac1609_4 SNIRLostPackets 0
scalar Scenario.node[32].nic.mac1609_4 RXTXLostPackets 0
scalar Scenario.node[32].nic.mac1609_4 TotalLostPackets 0
scalar Scenario.node[32].nic.mac1609_4 DroppedPacketsInMac 0
scalar Scenario.node[32].nic.mac1609_4 TooLittleTime 0
scalar Scenario.node[32].nic.mac1609_4 TimesIntoBackoff 0
scalar Scenario.node[32].nic.mac1609_4 SlotsBackoff 0
scalar Scenario.node[32].nic.mac1609_4 NumInternalContention 0
scalar Scenario.node[32].nic.mac1609_4 totalBusyTime 0
scalar Scenario.node[32].nic.mac1609_4 retriesExceeded:count 0
attr source org_car2x_veins_modules_mac_sigRetriesExceeded
scalar Scenario.node[32].nic.mac1609_4 sentAcks:count 0
attr source org_car2x_veins_modules_mac_sigSentAck
scalar Scenario.node[32].nic.mac1609_4 sentPackets:count 0
attr source org_car2x_veins_modules_mac_sigSentPacket
scalar Scenario.node[32].nic.mac1609_4 collisions:count 0
attr source org_car2x_veins_modules_mac_sigCollision
scalar Scenario.node[32].nic.mac1609_4 channelBusy:timeavg 0
attr source org_car2x_veins_modules_mac_sigChannelBusy
scalar Scenario.node[32].veinsmobility startTime 75
scalar Scenario.node[32].veinsmobility totalTime 22
scalar Scenario.node[32].veinsmobility stopTime 98
scalar Scenario.node[32].veinsmobility minSpeed 2.1919916117564
scalar Scenario.node[32].veinsmobility maxSpeed 15.800102408912
scalar Scenario.node[32].veinsmobility totalDistance 2626.5872495657
scalar Scenario.node[32].veinsmobility totalCO2Emission 76.859731537383
scalar Scenario.node[34].appl generatedWSMs 0
scalar Scenario.node[34].appl receivedWSMs 0
scalar Scenario.node[34].appl generatedBSMs 0
scalar Scenario.node[34].appl receivedBSMs 0
scalar Scenario.node[34].appl generatedWSAs 0
scalar Scenario.node[34].appl receivedWSAs 0
scalar Scenario.node[34].nic.phy80211p busyTime 0
scalar Scenario.node[34].nic.mac1609_4 ReceivedUnicastPackets 0
scalar Scenario.node[34].nic.mac1609_4 ReceivedBroadcasts 0
scalar Scenario.node[34].nic.mac1609_4 SentPackets 0
scalar Scenario.node[34].nic.mac1609_4 SentAcknowledgements 0
scalar Scenario.node[34].nic.mac1609_4 RetriesExceeded 0
scalar Scenario.node[34].nic.mac1609_4 SNIRLostPackets 0
scalar Scenario.node[34].nic.mac1609_4 RXTXLostPackets 0
scalar Scenario.node[34].nic.mac1609_4 TotalLostPackets 0
scalar Scenario.node[34].nic.mac1609_4 DroppedPacketsInMac 0
scalar Scenario.node[34].nic.mac1609_4 TooLittleTime 0
scalar Scenario.node[34].nic.mac1609_4 TimesIntoBackoff 0
scalar Scenario.node[34].nic.mac1609_4 SlotsBackoff 0
scalar Scenario.node[34].nic.mac1609_4 NumInternalContention 0
scalar Scenario.node[34].nic.mac1609_4 totalBusyTime 0
scalar Scenario.node[34].nic.mac1609_4 retriesExceeded:count 0
attr source org_car2x_veins_modules_mac_sigRetriesExceeded
scalar Scenario.node[34].nic.mac1609_4 sentAcks:count 0
attr source org_car2x_veins_modules_mac_sigSentAck
scalar Scenario.node[34].nic.mac1609_4 sentPackets:count 0
attr source org_car2x_veins_modules_mac_sigSentPacket
scalar Scenario.node[34].nic.mac1609_4 collisions:count 0
attr source org_car2x_veins_modules_mac_sigCollision
scalar Scenario.node[34].nic.mac1609_4 channelBusy:timeavg 0
attr source org_car2x_veins_modules_mac_sigChannelBusy
scalar Scenario.node[34].veinsmobility startTime 78
scalar Scenario.node[34].veinsmobility totalTime 22
scalar Scenario.node[34].veinsmobility stopTime 101
scalar Scenario.node[34].veinsmobility minSpeed 1.922066505393
scalar Scenario.node[34].veinsmobility maxSpeed 16.442812287057
scalar Scenario.node[34].veinsmobility totalDistance 2715.1332700255
scalar Scenario.node[34].veinsmobility totalCO2Emission 85.257605920772
scalar Scenario.node[35].appl generatedWSMs 0
scalar Scenario.node[35].appl receivedWSMs 0
scalar Scenario.node[35].appl generatedBSMs 0
scalar Scenario.node[35].appl receivedBSMs 0
scalar Scenario.node[35].appl generatedWSAs 0
scalar Scenario.node[35].appl receivedWSAs 0
scalar Scenario.node[35].nic.phy80211p busyTime 0
scalar Scenario.node[35].nic.mac1609_4 ReceivedUnicastPackets 0
scalar Scenario.node[35].nic.mac1609_4 ReceivedBroadcasts 0
scalar Scenario.node[35].nic.mac1609_4 SentPackets 0
scalar Scenario.node[35].nic.mac1609_4 SentAcknowledgements 0
scalar Scenario.node[35].nic.mac1609_4 RetriesExceeded 0
scalar Scenario.node[35].nic.mac1609_4 SNIRLostPackets 0
scalar Scenario.node[35].nic.mac1609_4 RXTXLostPackets 0
scalar Scenario.node[35].nic.mac1609_4 TotalLostPackets 0
scalar Scenario.node[35].nic.mac1609_4 DroppedPacketsInMac 0
scalar Scenario.node[35].nic.mac1609_4 TooLittleTime 0
scalar Scenario.node[35].nic.mac1609_4 TimesIntoBackoff 0
scalar Scenario.node[35].nic.mac1609_4 SlotsBackoff 0
scalar Scenario.node[35].nic.mac1609_4 NumInternalContention 0
scalar Scenario.node[35].nic.mac1609_4 totalBusyTime 0
scalar Scenario.node[35].nic.mac1609_4 retriesExceeded:count 0
attr source org_car2x_veins_modules_mac_sigRetriesExceeded
scalar Scenario.node[35].nic.mac1609_4 sentAcks:count 0
attr source org_car2x_veins_modules_mac_sigSentAck
scalar Scenario.node[35].nic.mac1609_4 sentPackets:count 0
attr source org_car2x_veins_modules_mac_sigSentPacket
scalar Scenario.node[35].nic.mac1609_4 collisions:count 0
attr source org_car2x_veins_modules_mac_sigCollision
scalar Scenario.node[35].nic.mac1609_4 channelBusy:timeavg 0
attr source org_car2x_veins_modules_mac_sigChannelBusy
scalar Scenario.node[35].veinsmobility startTime 81
scalar Scenario.node[35].veinsmobility totalTime 25
scalar Scenario.node[35].veinsmobility stopTime 107
scalar Scenario.node[35].veinsmobility minSpeed 2.5526133754989
scalar Scenario.node[35].veinsmobility maxSpeed 13.591127198862
scalar Scenario.node[35].veinsmobility totalDistance 2732.6835870922
scalar Scenario.node[35].veinsmobility totalCO2Emission 72.149657876946
scalar Scenario.node[37].appl generatedWSMs 0
scalar Scenario.node[37].appl receivedWSMs 0
scalar Scenario.node[37].appl generatedBSMs 0
scalar Scenario.node[37].appl receivedBSMs 0
scalar Scenario.node[37].appl generatedWSAs 0
scalar Scenario.node[37].appl receivedWSAs 0
scalar Scenario.node[37].nic.phy80211p busyTime 0
scalar Scenario.node[37].nic.mac1609_4 ReceivedUnicastPackets 0
scalar Scenario.node[37].nic.mac1609_4 ReceivedBroadcasts 0
scalar Scenario.node[37].nic.mac1609_4 SentPackets 0
scalar Scenario.node[37].nic.mac1609_4 SentAcknowledgements 0
scalar Scenario.node[37].nic.mac1609_4 RetriesExceeded 0
scalar Scenario.node[37].nic.mac1609_4 SNIRLostPackets 0
scalar Scenario.node[37].nic.mac1609_4 RXTXLostPackets 0
scalar Scenario.node[37].nic.mac1609_4 TotalLostPackets 0
scalar Scenario.node[37].nic.mac1609_4 DroppedPacketsInMac 0
scalar Scenario.node[37].nic.mac1609_4 TooLittleTime 0
scalar Scenario.node[37].nic.mac1609_4 TimesIntoBackoff 0
scalar Scenario.node[37].nic.mac1609_4 SlotsBackoff 0
scalar Scenario.node[37].nic.mac1609_4 NumInternalContention 0
scalar Scenario.node[37].nic.mac1609_4 totalBusyTime 0
scalar Scenario.node[37].nic.mac1609_4 retriesExceeded:count 0
attr source org_car2x_veins_modules_mac_sigRetriesExceeded
scalar Scenario.node[37].nic.mac1609_4 sentAcks:count 0
attr source org_car2x_veins_modules_mac_sigSentAck
scalar Scenario.node[37].nic.mac1609_4 sentPackets:count 0
attr source org_car2x_veins_modules_mac_sigSentPacket
scalar Scenario.node[37].nic.mac1609_4 collisions:count 0
attr source org_car2x_veins_modules_mac_sigCollision
scalar Scenario.node[37].nic.mac1609_4 channelBusy:timeavg 0
attr source org_car2x_veins_modules_mac_sigChannelBusy
scalar Scenario.node[37].veinsmobility startTime 84
scalar Scenario.node[37].veinsmobility totalTime 24
scalar Scenario.node[37].veinsmobility stopTime 109
scalar Scenario.node[37].veinsmobility minSpeed 1.3622276712907
scalar Scenario.node[37].veinsmobility maxSpeed 14.109782622448
scalar Scenario.node[37].veinsmobility totalDistance 2709.8206264684
scalar Scenario.node[37].veinsmobility totalCO2Emission 73.842976082293
scalar Scenario.node[9].appl generatedWSMs 0
scalar Scenario.node[9].appl receivedWSMs 0
scalar Scenario.node[9].appl generatedBSMs 0
scalar Scenario.node[9].appl receivedBSMs 0
scalar Scenario.node[9].appl generatedWSAs 0
scalar Scenario.node[9].appl receivedWSAs 0
scalar Scenario.node[9].nic.phy80211p busyTime 0
scalar Scenario.node[9].nic.mac1609_4 ReceivedUnicastPackets 0
scalar Scenario.node[9].nic.mac1609_4 ReceivedBroadcasts 0
scalar Scenario.node[9].nic.mac1609_4 SentPackets 0
scalar Scenario.node[9].nic.mac1609_4 SentAcknowledgements 0
scalar Scenario.node[9].nic.mac1609_4 RetriesExceeded 0
scalar Scenario.node[9].nic.mac1609_4 SNIRLostPackets 0
scalar Scenario.node[9].nic.mac1609_4 RXTXLostPackets 0
scalar Scenario.node[9].nic.mac1609_4 TotalLostPackets 0
scalar Scenario.node[9].nic.mac1609_4 DroppedPacketsInMac 0
scalar Scenario.node[9].nic.mac1609_4 TooLittleTime 0
scalar Scenario.node[9].nic.mac1609_4 TimesIntoBackoff 0
scalar Scenario.node[9].nic.mac1609_4 SlotsBackoff 0
scalar Scenario.node[9].nic.mac1609_4 NumInternalContention 0
scalar Scenario.node[9].nic.mac1609_4 totalBusyTime 0
scalar Scenario.node[9].nic.mac1609_4 retriesExceeded:count 0
attr source org_car2x_veins_modules_mac_sigRetriesExceeded
scalar Scenario.node[9].nic.mac1609_4 sentAcks:count 0
attr source org_car2x_veins_modules_mac_sigSentAck
scalar Scenario.node[9].nic.mac1609_4 sentPackets:count 0
attr source org_car2x_veins_modules_mac_sigSentPacket
scalar Scenario.node[9].nic.mac1609_4 collisions:count 0
attr source org_car2x_veins_modules_mac_sigCollision
scalar Scenario.node[9].nic.mac1609_4 channelBusy:timeavg 0
attr source org_car2x_veins_modules_mac_sigChannelBusy
scalar Scenario.node[9].veinsmobility startTime 29
scalar Scenario.node[9].veinsmobility totalTime 82
scalar Scenario.node[9].veinsmobility stopTime 112
scalar Scenario.node[9].veinsmobility minSpeed 0
scalar Scenario.node[9].veinsmobility maxSpeed 17.563406042359
scalar Scenario.node[9].veinsmobility totalDistance 2617.0210153582
scalar Scenario.node[9].veinsmobility totalCO2Emission 180.18699574064
scalar Scenario.node[38].appl generatedWSMs 0
scalar Scenario.node[38].appl receivedWSMs 0
scalar Scenario.node[38].appl generatedBSMs 0
scalar Scenario.node[38].appl receivedBSMs 0
scalar Scenario.node[38].appl generatedWSAs 0
scalar Scenario.node[38].appl receivedWSAs 0
scalar Scenario.node[38].nic.phy80211p busyTime 0
scalar Scenario.node[38].nic.mac1609_4 ReceivedUnicastPackets 0
scalar Scenario.node[38].nic.mac1609_4 ReceivedBroadcasts 0
scalar Scenario.node[38].nic.mac1609_4 SentPackets 0
scalar Scenario.node[38].nic.mac1609_4 SentAcknowledgements 0
scalar Scenario.node[38].nic.mac1609_4 RetriesExceeded 0
scalar Scenario.node[38].nic.mac1609_4 SNIRLostPackets 0
scalar Scenario.node[38].nic.mac1609_4 RXTXLostPackets 0
scalar Scenario.node[38].nic.mac1609_4 TotalLostPackets 0
scalar Scenario.node[38].nic.mac1609_4 DroppedPacketsInMac 0
scalar Scenario.node[38].nic.mac1609_4 TooLittleTime 0
scalar Scenario.node[38].nic.mac1609_4 TimesIntoBackoff 0
scalar Scenario.node[38].nic.mac1609_4 SlotsBackoff 0
scalar Scenario.node[38].nic.mac1609_4 NumInternalContention 0
scalar Scenario.node[38].nic.mac1609_4 totalBusyTime 0
scalar Scenario.node[38].nic.mac1609_4 retriesExceeded:count 0
attr source org_car2x_veins_modules_mac_sigRetriesExceeded
scalar Scenario.node[38].nic.mac1609_4 sentAcks:count 0
attr source org_car2x_veins_modules_mac_sigSentAck
scalar Scenario.node[38].nic.mac1609_4 sentPackets:count 0
attr source org_car2x_veins_modules_mac_sigSentPacket
scalar Scenario.node[38].nic.mac1609_4 collisions:count 0
attr source org_car2x_veins_modules_mac_sigCollision
scalar Scenario.node[38].nic.mac1609_4 channelBusy:timeavg 0
attr source org_car2x_veins_modules_mac_sigChannelBusy
scalar Scenario.node[38].veinsmobility startTime 87
scalar Scenario.node[38].veinsmobility totalTime 29
scalar Scenario.node[38].veinsmobility stopTime 117
scalar Scenario.node[38].veinsmobility minSpeed 1.7132014017319
scalar Scenario.node[38].veinsmobility maxSpeed 12.191906766482
scalar Scenario.node[38].veinsmobility totalDistance 2704.7585193543
scalar Scenario.node[38].veinsmobility totalCO2Emission 80.468237654433
scalar Scenario.node[40].appl generatedWSMs 0
scalar Scenario.node[40].appl receivedWSMs 0
scalar Scenario.node[40].appl generatedBSMs 0
scalar Scenario.node[40].appl receivedBSMs 0
scalar Scenario.node[40].appl generatedWSAs 0
scalar Scenario.node[40].appl receivedWSAs 0
scalar Scenario.node[40].nic.phy80211p busyTime 0
scalar Scenario.node[40].nic.mac1609_4 ReceivedUnicastPackets 0
scalar Scenario.node[40].nic.mac1609_4 ReceivedBroadcasts 0
scalar Scenario.node[40].nic.mac1609_4 SentPackets 0
scalar Scenario.node[40].nic.mac1609_4 SentAcknowledgements 0
scalar Scenario.node[40].nic.mac1609_4 RetriesExceeded 0
scalar Scenario.node[40].nic.mac1609_4 SNIRLostPackets 0
scalar Scenario.node[40].nic.mac1609_4 RXTXLostPackets 0
scalar Scenario.node[40].nic.mac1609_4 TotalLostPackets 0
scalar Scenario.node[40].nic.mac1609_4 DroppedPacketsInMac 0
scalar Scenario.node[40].nic.mac1609_4 TooLittleTime 0
scalar Scenario.node[40].nic.mac1609_4 TimesIntoBackoff 0
scalar Scenario.node[40].nic.mac1609_4 SlotsBackoff 0
scalar Scenario.node[40].nic.mac1609_4 NumInternalContention 0
scalar Scenario.node[40].nic.mac1609_4 totalBusyTime 0
scalar Scenario.node[40].nic.mac1609_4 retriesExceeded:count 0
attr source org_car2x_veins_modules_mac_sigRetriesExceeded
scalar Scenario.node[40].nic.mac1609_4 sentAcks:count 0
attr source org_car2x_veins_modules_mac_sigSentAck
scalar Scenario.node[40].nic.mac1609_4 sentPackets:count 0
attr source org_car2x_veins_modules_mac_sigSentPacket
scalar Scenario.node[40].nic.mac1609_4 collisions:count 0
attr source org_car2x_veins_modules_mac_sigCollision
scalar Scenario.node[40].nic.mac1609_4 channelBusy:timeavg 0
attr source org_car2x_veins_modules_mac_sigChannelBusy
scalar Scenario.node[40].veinsmobility startTime 90
scalar Scenario.node[40].veinsmobility totalTime 28
scalar Scenario.node[40].veinsmobility stopTime 119
scalar Scenario.node[40].veinsmobility minSpeed 1.7891687938012
scalar Scenario.node[40].veinsmobility maxSpeed 12.578346434278
scalar Scenario.node[40].veinsmobility totalDistance 2729.7531362864
scalar Scenario.node[40].veinsmobility totalCO2Emission 86.708385273723
scalar Scenario.node[42].appl generatedWSMs 0
scalar Scenario.node[42].appl receivedWSMs 0
scalar Scenario.node[42].appl generatedBSMs 0
scalar Scenario.node[42].appl receivedBSMs 0
scalar Scenario.node[42].appl generatedWSAs 0
scalar Scenario.node[42].appl receivedWSAs 0
scalar Scenario.node[42].nic.phy80211p busyTime 0
scalar Scenario.node[42].nic.mac1609_4 ReceivedUnicastPackets 0
scalar Scenario.node[42].nic.mac1609_4 ReceivedBroadcasts 0
scalar Scenario.node[42].nic.mac1609_4 SentPackets 0
scalar Scenario.node[42].nic.mac1609_4 SentAcknowledgements 0
scalar Scenario.node[42].nic.mac1609_4 RetriesExceeded 0
scalar Scenario.node[42].nic.mac1609_4 SNIRLostPackets 0
scalar Scenario.node[42].nic.mac1609_4 RXTXLostPackets 0
scalar Scenario.node[42].nic.mac1609_4 TotalLostPackets 0
scalar Scenario.node[42].nic.mac1609_4 DroppedPacketsInMac 0
scalar Scenario.node[42].nic.mac1609_4 TooLittleTime 0
scalar Scenario.node[42].nic.mac1609_4 TimesIntoBackoff 0
scalar Scenario.node[42].nic.mac1609_4 SlotsBackoff 0
scalar Scenario.node[42].nic.mac1609_4 NumInternalContention 0
scalar Scenario.node[42].nic.mac1609_4 totalBusyTime 0
scalar Scenario.node[42].nic.mac1609_4 retriesExceeded:count 0
attr source org_car2x_veins_modules_mac_sigRetriesExceeded
scalar Scenario.node[42].nic.mac1609_4 sentAcks:count 0
attr source org_car2x_veins_modules_mac_sigSentAck
scalar Scenario.node[42].nic.mac1609_4 sentPackets:count 0
attr source org_car2x_veins_modules_mac_sigSentPacket
scalar Scenario.node[42].nic.mac1609_4 collisions:count 0
attr source org_car2x_veins_modules_mac_sigCollision
scalar Scenario.node[42].nic.mac1609_4 channelBusy:timeavg 0
attr source org_car2x_veins_modules_mac_sigChannelBusy
scalar Scenario.node[42].veinsmobility startTime 93
scalar Scenario.node[42].veinsmobility totalTime 29
scalar Scenario.node[42].veinsmobility stopTime 123
scalar Scenario.node[42].veinsmobility minSpeed 1.7114885492483
scalar Scenario.node[42].veinsmobility maxSpeed 11.661584906651
scalar Scenario.node[42].veinsmobility totalDistance 2721.8023337018
scalar Scenario.node[42].veinsmobility totalCO2Emission 71.995820391483
scalar Scenario.node[44].appl generatedWSMs 0
scalar Scenario.node[44].appl receivedWSMs 0
scalar Scenario.node[44].appl generatedBSMs 0
scalar Scenario.node[44].appl receivedBSMs 0
scalar Scenario.node[44].appl generatedWSAs 0
scalar Scenario.node[44].appl receivedWSAs 0
scalar Scenario.node[44].nic.phy80211p busyTime 0
scalar Scenario.node[44].nic.mac1609_4 ReceivedUnicastPackets 0
scalar Scenario.node[44].nic.mac1609_4 ReceivedBroadcasts 0
scalar Scenario.node[44].nic.mac1609_4 SentPackets 0
scalar Scenario.node[44].nic.mac1609_4 SentAcknowledgements 0
scalar Scenario.node[44].nic.mac1609_4 RetriesExceeded 0
scalar Scenario.node[44].nic.mac1609_4 SNIRLostPackets 0
scalar Scenario.node[44].nic.mac1609_4 RXTXLostPackets 0
scalar Scenario.node[44].nic.mac1609_4 TotalLostPackets 0
scalar Scenario.node[44].nic.mac1609_4 DroppedPacketsInMac 0
scalar Scenario.node[44].nic.mac1609_4 TooLittleTime 0
scalar Scenario.node[44].nic.mac1609_4 TimesIntoBackoff 0
scalar Scenario.node[44].nic.mac1609_4 SlotsBackoff 0
scalar Scenario.node[44].nic.mac1609_4 NumInternalContention 0
scalar Scenario.node[44].nic.mac1609_4 totalBusyTime 0
scalar Scenario.node[44].nic.mac1609_4 retriesExceeded:count 0
attr source org_car2x_veins_modules_mac_sigRetriesExceeded
scalar Scenario.node[44].nic.mac1609_4 sentAcks:count 0
attr source org_car2x_veins_modules_mac_sigSentAck
scalar Scenario.node[44].nic.mac1609_4 sentPackets:count 0
attr source org_car2x_veins_modules_mac_sigSentPacket
scalar Scenario.node[44].nic.mac1609_4 collisions:count 0
attr source org_car2x_veins_modules_mac_sigCollision
scalar Scenario.node[44].nic.mac1609_4 channelBusy:timeavg 0
attr source org_car2x_veins_modules_mac_sigChannelBusy
scalar Scenario.node[44].veinsmobility startTime 96
scalar Scenario.node[44].veinsmobility totalTime 28
scalar Scenario.node[44].veinsmobility stopTime 125
scalar Scenario.node[44].veinsmobility minSpeed 2.5965631975792
scalar Scenario.node[44].veinsmobility maxSpeed 11.844221279524
scalar Scenario.node[44].veinsmobility totalDistance 2738.0430207585
scalar Scenario.node[44].veinsmobility totalCO2Emission 70.904108829179
scalar Scenario.node[45].appl generatedWSMs 0
scalar Scenario.node[45].appl receivedWSMs 0
scalar Scenario.node[45].appl generatedBSMs 0
scalar Scenario.node[45].appl receivedBSMs 0
scalar Scenario.node[45].appl generatedWSAs 0
scalar Scenario.node[45].appl receivedWSAs 0
scalar Scenario.node[45].nic.phy80211p busyTime 0
scalar Scenario.node[45].nic.mac1609_4 ReceivedUnicastPackets 0
scalar Scenario.node[45].nic.mac1609_4 ReceivedBroadcasts 0
scalar Scenario.node[45].nic.mac1609_4 SentPackets 0
scalar Scenario.node[45].nic.mac1609_4 SentAcknowledgements 0
scalar Scenario.node[45].nic.mac1609_4 RetriesExceeded 0
scalar Scenario.node[45].nic.mac1609_4 SNIRLostPackets 0
scalar Scenario.node[45].nic.mac1609_4 RXTXLostPackets 0
scalar Scenario.node[45].nic.mac1609_4 TotalLostPackets 0
scalar Scenario.node[45].nic.mac1609_4 DroppedPacketsInMac 0
scalar Scenario.node[45].nic.mac1609_4 TooLittleTime 0
scalar Scenario.node[45].nic.mac1609_4 TimesIntoBackoff 0
scalar Scenario.node[45].nic.mac1609_4 SlotsBackoff 0
scalar Scenario.node[45].nic.mac1609_4 NumInternalContention 0
scalar Scenario.node[45].nic.mac1609_4 totalBusyTime 0
scalar Scenario.node[45].nic.mac1609_4 retriesExceeded:count 0
attr source org_car2x_veins_modules_mac_sigRetriesExceeded
scalar Scenario.node[45].nic.mac1609_4 sentAcks:count 0
attr source org_car2x_veins_modules_mac_sigSentAck
scalar Scenario.node[45].nic.mac1609_4 sentPackets:count 0
attr source org_car2x_veins_modules_mac_sigSentPacket
scalar Scenario.node[45].nic.mac1609_4 collisions:count 0
attr source org_car2x_veins_modules_mac_sigCollision
scalar Scenario.node[45].nic.mac1609_4 channelBusy:timeavg 0
attr source org_car2x_veins_modules_mac_sigChannelBusy
scalar Scenario.node[45].veinsmobility startTime 98
scalar Scenario.node[45].veinsmobility totalTime 27
scalar Scenario.node[45].veinsmobility stopTime 126
scalar Scenario.node[45].veinsmobility minSpeed 0.53367135274965
scalar Scenario.node[45].veinsmobility maxSpeed 13.737993432579
scalar Scenario.node[45].veinsmobility totalDistance 2638.372949215
scalar Scenario.node[45].veinsmobility totalCO2Emission 73.322687594355
scalar Scenario.node[48].appl generatedWSMs 0
scalar Scenario.node[48].appl receivedWSMs 0
scalar Scenario.node[48].appl generatedBSMs 0
scalar Scenario.node[48].appl receivedBSMs 0
scalar Scenario.node[48].appl generatedWSAs 0
scalar Scenario.node[48].appl receivedWSAs 0
scalar Scenario.node[48].nic.phy80211p busyTime 0
scalar Scenario.node[48].nic.mac1609_4 ReceivedUnicastPackets 0
scalar Scenario.node[48].nic.mac1609_4 ReceivedBroadcasts 0
scalar Scenario.node[48].nic.mac1609_4 SentPackets 0
scalar Scenario.node[48].nic.mac1609_4 SentAcknowledgements 0
scalar Scenario.node[48].nic.mac1609_4 RetriesExceeded 0
scalar Scenario.node[48].nic.mac1609_4 SNIRLostPackets 0
scalar Scenario.node[48].nic.mac1609_4 RXTXLostPackets 0
scalar Scenario.node[48].nic.mac1609_4 TotalLostPackets 0
scalar Scenario.node[48].nic.mac1609_4 DroppedPacketsInMac 0
scalar Scenario.node[48].nic.mac1609_4 TooLittleTime 0
scalar Scenario.node[48].nic.mac1609_4 TimesIntoBackoff 0
scalar Scenario.node[48].nic.mac1609_4 SlotsBackoff 0
scalar Scenario.node[48].nic.mac1609_4 NumInternalContention 0
scalar Scenario.node[48].nic.mac1609_4 totalBusyTime 0
scalar Scenario.node[48].nic.mac1609_4 retriesExceeded:count 0
attr source org_car2x_veins_modules_mac_sigRetriesExceeded
scalar Scenario.node[48].nic.mac1609_4 sentAcks:count 0
attr source org_car2x_veins_modules_mac_sigSentAck
scalar Scenario.node[48].nic.mac1609_4 sentPackets:count 0
attr source org_car2x_veins_modules_mac_sigSentPacket
scalar Scenario.node[48].nic.mac1609_4 collisions:count 0
attr source org_car2x_veins_modules_mac_sigCollision
scalar Scenario.node[48].nic.mac1609_4 channelBusy:timeavg 0
attr source org_car2x_veins_modules_mac_sigChannelBusy
scalar Scenario.node[48].veinsmobility startTime 102
scalar Scenario.node[48].veinsmobility totalTime 26
scalar Scenario.node[48].veinsmobility stopTime 129
scalar Scenario.node[48].veinsmobility minSpeed 1.649531213427
scalar Scenario.node[48].veinsmobility maxSpeed 12.589583568863
scalar Scenario.node[48].veinsmobility totalDistance 2651.4803872831
scalar Scenario.node[48].veinsmobility totalCO2Emission 74.381598421039
scalar Scenario.node[49].appl generatedWSMs 0
scalar Scenario.node[49].appl receivedWSMs 0
scalar Scenario.node[49].appl generatedBSMs 0
scalar Scenario.node[49].appl receivedBSMs 0
scalar Scenario.node[49].appl generatedWSAs 0
scalar Scenario.node[49].appl receivedWSAs 0
scalar Scenario.node[49].nic.phy80211p busyTime 0
scalar Scenario.node[49].nic.mac1609_4 ReceivedUnicastPackets 0
scalar Scenario.node[49].nic.mac1609_4 ReceivedBroadcasts 0
scalar Scenario.node[49].nic.mac1609_4 SentPackets 0
scalar Scenario.node[49].nic.mac1609_4 SentAcknowledgements 0
scalar Scenario.node[49].nic.mac1609_4 RetriesExceeded 0
scalar Scenario.node[49].nic.mac1609_4 SNIRLostPackets 0
scalar Scenario.node[49].nic.mac1609_4 RXTXLostPackets 0
scalar Scenario.node[49].nic.mac1609_4 TotalLostPackets 0
scalar Scenario.node[49].nic.mac1609_4 DroppedPacketsInMac 0
scalar Scenario.node[49].nic.mac1609_4 TooLittleTime 0
scalar Scenario.node[49].nic.mac1609_4 TimesIntoBackoff 0
scalar Scenario.node[49].nic.mac1609_4 SlotsBackoff 0
scalar Scenario.node[49].nic.mac1609_4 NumInternalContention 0
scalar Scenario.node[49].nic.mac1609_4 totalBusyTime 0
scalar Scenario.node[49].nic.mac1609_4 retriesExceeded:count 0
attr source org_car2x_veins_modules_mac_sigRetriesExceeded
scalar Scenario.node[49].nic.mac1609_4 sentAcks:count 0
attr source org_car2x_veins_modules_mac_sigSentAck
scalar Scenario.node[49].nic.mac1609_4 sentPackets:count 0
attr source org_car2x_veins_modules_mac_sigSentPacket
scalar Scenario.node[49].nic.mac1609_4 collisions:count 0
attr source org_car2x_veins_modules_mac_sigCollision
scalar Scenario.node[49].nic.mac1609_4 channelBusy:timeavg 0
attr source org_car2x_veins_modules_mac_sigChannelBusy
scalar Scenario.node[49].veinsmobility startTime 105
scalar Scenario.node[49].veinsmobility totalTime 27
scalar Scenario.node[49].veinsmobility stopTime 133
scalar Scenario.node[49].veinsmobility minSpeed 2.3686384078581
scalar Scenario.node[49].veinsmobility maxSpeed 12.143130706093
scalar Scenario.node[49].veinsmobility totalDistance 2670.7048211733
scalar Scenario.node[49].veinsmobility totalCO2Emission 70.581579002966
scalar Scenario.node[50].appl generatedWSMs 0
scalar Scenario.node[50].appl receivedWSMs 0
scalar Scenario.node[50].appl generatedBSMs 0
scalar Scenario.node[50].appl receivedBSMs 0
scalar Scenario.node[50].appl generatedWSAs 0
scalar Scenario.node[50].appl receivedWSAs 0
scalar Scenario.node[50].nic.phy80211p busyTime 0
scalar Scenario.node[50].nic.mac1609_4 ReceivedUnicastPackets 0
scalar Scenario.node[50].nic.mac1609_4 ReceivedBroadcasts 0
scalar Scenario.node[50].nic.mac1609_4 SentPackets 0
scalar Scenario.node[50].nic.mac1609_4 SentAcknowledgements 0
scalar Scenario.node[50].nic.mac1609_4 RetriesExceeded 0
scalar Scenario.node[50].nic.mac1609_4 SNIRLostPackets 0
scalar Scenario.node[50].nic.mac1609_4 RXTXLostPackets 0
scalar Scenario.node[50].nic.mac1609_4 TotalLostPackets 0
scalar Scenario.node[50].nic.mac1609_4 DroppedPacketsInMac 0
scalar Scenario.node[50].nic.mac1609_4 TooLittleTime 0
scalar Scenario.node[50].nic.mac1609_4 TimesIntoBackoff 0
scalar Scenario.node[50].nic.mac1609_4 SlotsBackoff 0
scalar Scenario.node[50].nic.mac1609_4 NumInternalContention 0
scalar Scenario.node[50].nic.mac1609_4 totalBusyTime 0
scalar Scenario.node[50].nic.mac1609_4 retriesExceeded:count 0
attr source org_car2x_veins_modules_mac_sigRetriesExceeded
scalar Scenario.node[50].nic.mac1609_4 sentAcks:count 0
attr source org_car2x_veins_modules_mac_sigSentAck
scalar Scenario.node[50].nic.mac1609_4 sentPackets:count 0
attr source org_car2x_veins_modules_mac_sigSentPacket
scalar Scenario.node[50].nic.mac1609_4 collisions:count 0
attr source org_car2x_veins_modules_mac_sigCollision
scalar Scenario.node[50].nic.mac1609_4 channelBusy:timeavg 0
attr source org_car2x_veins_modules_mac_sigChannelBusy
scalar Scenario.node[50].veinsmobility startTime 108
scalar Scenario.node[50].veinsmobility totalTime 26
scalar Scenario.node[50].veinsmobility stopTime 135
scalar Scenario.node[50].veinsmobility minSpeed 2.423096384597
scalar Scenario.node[50].veinsmobility maxSpeed 13.713475924692
scalar Scenario.node[50].veinsmobility totalDistance 2721.1280564462
scalar Scenario.node[50].veinsmobility totalCO2Emission 83.42203094899
scalar Scenario.node[51].appl generatedWSMs 0
scalar Scenario.node[51].appl receivedWSMs 0
scalar Scenario.node[51].appl generatedBSMs 0
scalar Scenario.node[51].appl receivedBSMs 0
scalar Scenario.node[51].appl generatedWSAs 0
scalar Scenario.node[51].appl receivedWSAs 0
scalar Scenario.node[51].nic.phy80211p busyTime 0
scalar Scenario.node[51].nic.mac1609_4 ReceivedUnicastPackets 0
scalar Scenario.node[51].nic.mac1609_4 ReceivedBroadcasts 0
scalar Scenario.node[51].nic.mac1609_4 SentPackets 0
scalar Scenario.node[51].nic.mac1609_4 SentAcknowledgements 0
scalar Scenario.node[51].nic.mac1609_4 RetriesExceeded 0
scalar Scenario.node[51].nic.mac1609_4 SNIRLostPackets 0
scalar Scenario.node[51].nic.mac1609_4 RXTXLostPackets 0
scalar Scenario.node[51].nic.mac1609_4 TotalLostPackets 0
scalar Scenario.node[51].nic.mac1609_4 DroppedPacketsInMac 0
scalar Scenario.node[51].nic.mac1609_4 TooLittleTime 0
scalar Scenario.node[51].nic.mac1609_4 TimesIntoBackoff 0
scalar Scenario.node[51].nic.mac1609_4 SlotsBackoff 0
scalar Scenario.node[51].nic.mac1609_4 NumInternalContention 0
scalar Scenario.node[51].nic.mac1609_4 totalBusyTime 0
scalar Scenario.node[51].nic.mac1609_4 retriesExceeded:count 0
attr source org_car2x_veins_modules_mac_sigRetriesExceeded
scalar Scenario.node[51].nic.mac1609_4 sentAcks:count 0
attr source org_car2x_veins_modules_mac_sigSentAck
scalar Scenario.node[51].nic.mac1609_4 sentPackets:count 0
attr source org_car2x_veins_modules_mac_sigSentPacket
scalar Scenario.node[51].nic.mac1609_4 collisions:count 0
attr source org_car2x_veins_modules_mac_sigCollision
scalar Scenario.node[51].nic.mac1609_4 channelBusy:timeavg 0
attr source org_car2x_veins_modules_mac_sigChannelBusy
scalar Scenario.node[51].veinsmobility startTime 111
scalar Scenario.node[51].veinsmobility totalTime 27
scalar Scenario.node[51].veinsmobility stopTime 139
scalar Scenario.node[51].veinsmobility minSpeed 1.6710262941429
scalar Scenario.node[51].veinsmobility maxSpeed 12.476943863229
scalar Scenario.node[51].veinsmobility totalDistance 2719.8863204041
scalar Scenario.node[51].veinsmobility totalCO2Emission 68.355847633284
scalar Scenario.node[52].appl generatedWSMs 0
scalar Scenario.node[52].appl receivedWSMs 0
scalar Scenario.node[52].appl generatedBSMs 0
scalar Scenario.node[52].appl receivedBSMs 0
scalar Scenario.node[52].appl generatedWSAs 0
scalar Scenario.node[52].appl receivedWSAs 0
scalar Scenario.node[52].nic.phy80211p busyTime 0
scalar Scenario.node[52].nic.mac1609_4 ReceivedUnicastPackets 0
scalar Scenario.node[52].nic.mac1609_4 ReceivedBroadcasts 0
scalar Scenario.node[52].nic.mac1609_4 SentPackets 0
scalar Scenario.node[52].nic.mac1609_4 SentAcknowledgements 0
scalar Scenario.node[52].nic.mac1609_4 RetriesExceeded 0
scalar Scenario.node[52].nic.mac1609_4 SNIRLostPackets 0
scalar Scenario.node[52].nic.mac1609_4 RXTXLostPackets 0
scalar Scenario.node[52].nic.mac1609_4 TotalLostPackets 0
scalar Scenario.node[52].nic.mac1609_4 DroppedPacketsInMac 0
scalar Scenario.node[52].nic.mac1609_4 TooLittleTime 0
scalar Scenario.node[52].nic.mac1609_4 TimesIntoBackoff 0
scalar Scenario.node[52].nic.mac1609_4 SlotsBackoff 0
scalar Scenario.node[52].nic.mac1609_4 NumInternalContention 0
scalar Scenario.node[52].nic.mac1609_4 totalBusyTime 0
scalar Scenario.node[52].nic.mac1609_4 retriesExceeded:count 0
attr source org_car2x_veins_modules_mac_sigRetriesExceeded
scalar Scenario.node[52].nic.mac1609_4 sentAcks:count 0
attr source org_car2x_veins_modules_mac_sigSentAck
scalar Scenario.node[52].nic.mac1609_4 sentPackets:count 0
attr source org_car2x_veins_modules_mac_sigSentPacket
scalar Scenario.node[52].nic.mac1609_4 collisions:count 0
attr source org_car2x_veins_modules_mac_sigCollision
scalar Scenario.node[52].nic.mac1609_4 channelBusy:timeavg 0
attr source org_car2x_veins_modules_mac_sigChannelBusy
scalar Scenario.node[52].veinsmobility startTime 114
scalar Scenario.node[52].veinsmobility totalTime 26
scalar Scenario.node[52].veinsmobility stopTime 141
scalar Scenario.node[52].veinsmobility minSpeed 2.5455732210772
scalar Scenario.node[52].veinsmobility maxSpeed 12.790842526843
scalar Scenario.node[52].veinsmobility totalDistance 2734.7349338086
scalar Scenario.node[52].veinsmobility totalCO2Emission 72.209694283154
scalar Scenario.node[53].appl generatedWSMs 0
scalar Scenario.node[53].appl receivedWSMs 0
scalar Scenario.node[53].appl generatedBSMs 0
scalar Scenario.node[53].appl receivedBSMs 0
scalar Scenario.node[53].appl generatedWSAs 0
scalar Scenario.node[53].appl receivedWSAs 0
scalar Scenario.node[53].nic.phy80211p busyTime 0
scalar Scenario.node[53].nic.mac1609_4 ReceivedUnicastPackets 0
scalar Scenario.node[53].nic.mac1609_4 ReceivedBroadcasts 0
scalar Scenario.node[53].nic.mac1609_4 SentPackets 0
scalar Scenario.node[53].nic.mac1609_4 SentAcknowledgements 0
scalar Scenario.node[53].nic.mac1609_4 RetriesExceeded 0
scalar Scenario.node[53].nic.mac1609_4 SNIRLostPackets 0
scalar Scenario.node[53].nic.mac1609_4 RXTXLostPackets 0
scalar Scenario.node[53].nic.mac1609_4 TotalLostPackets 0
scalar Scenario.node[53].nic.mac1609_4 DroppedPacketsInMac 0
scalar Scenario.node[53].nic.mac1609_4 TooLittleTime 0
scalar Scenario.node[53].nic.mac1609_4 TimesIntoBackoff 0
scalar Scenario.node[53].nic.mac1609_4 SlotsBackoff 0
scalar Scenario.node[53].nic.mac1609_4 NumInternalContention 0
scalar Scenario.node[53].nic.mac1609_4 totalBusyTime 0
scalar Scenario.node[53].nic.mac1609_4 retriesExceeded:count 0
attr source org_car2x_veins_modules_mac_sigRetriesExceeded
scalar Scenario.node[53].nic.mac1609_4 sentAcks:count 0
attr source org_car2x_veins_modules_mac_sigSentAck
scalar Scenario.node[53].nic.mac1609_4 sentPackets:count 0
attr source org_car2x_veins_modules_mac_sigSentPacket
scalar Scenario.node[53].nic.mac1609_4 collisions:count 0
attr source org_car2x_veins_modules_mac_sigCollision
scalar Scenario.node[53].nic.mac1609_4 channelBusy:timeavg 0
attr source org_car2x_veins_modules_mac_sigChannelBusy
scalar Scenario.node[53].veinsmobility startTime 117
[...]
attr source org_car2x_veins_modules_mac_sigChannelBusy
scalar Scenario.node[140].veinsmobility startTime 359
scalar Scenario.node[140].veinsmobility totalTime 27
scalar Scenario.node[140].veinsmobility stopTime 387
scalar Scenario.node[140].veinsmobility minSpeed 1.475207975111
scalar Scenario.node[140].veinsmobility maxSpeed 13.315692808833
scalar Scenario.node[140].veinsmobility totalDistance 2683.6435657712
scalar Scenario.node[140].veinsmobility totalCO2Emission 86.584047092836
scalar Scenario.node[141].appl generatedWSMs 0
scalar Scenario.node[141].appl receivedWSMs 0
scalar Scenario.node[141].appl generatedBSMs 0
scalar Scenario.node[141].appl receivedBSMs 0
scalar Scenario.node[141].appl generatedWSAs 0
scalar Scenario.node[141].appl receivedWSAs 0
scalar Scenario.node[141].nic.phy80211p busyTime 0
scalar Scenario.node[141].nic.mac1609_4 ReceivedUnicastPackets 0
scalar Scenario.node[141].nic.mac1609_4 ReceivedBroadcasts 0
scalar Scenario.node[141].nic.mac1609_4 SentPackets 0
scalar Scenario.node[141].nic.mac1609_4 SentAcknowledgements 0
scalar Scenario.node[141].nic.mac1609_4 RetriesExceeded 0
scalar Scenario.node[141].nic.mac1609_4 SNIRLostPackets 0
scalar Scenario.node[141].nic.mac1609_4 RXTXLostPackets 0
scalar Scenario.node[141].nic.mac1609_4 TotalLostPackets 0
scalar Scenario.node[141].nic.mac1609_4 DroppedPacketsInMac 0
scalar Scenario.node[141].nic.mac1609_4 TooLittleTime 0
scalar Scenario.node[141].nic.mac1609_4 TimesIntoBackoff 0
scalar Scenario.node[141].nic.mac1609_4 SlotsBackoff 0
scalar Scenario.node[141].nic.mac1609_4 NumInternalContention 0
scalar Scenario.node[141].nic.mac1609_4 totalBusyTime 0
scalar Scenario.node[141].nic.mac1609_4 retriesExceeded:count 0
attr source org_car2x_veins_modules_mac_sigRetriesExceeded
scalar Scenario.node[141].nic.mac1609_4 sentAcks:count 0
attr source org_car2x_veins_modules_mac_sigSentAck
scalar Scenario.node[141].nic.mac1609_4 sentPackets:count 0
attr source org_car2x_veins_modules_mac_sigSentPacket
scalar Scenario.node[141].nic.mac1609_4 collisions:count 0
attr source org_car2x_veins_modules_mac_sigCollision
scalar Scenario.node[141].nic.mac1609_4 channelBusy:timeavg 0
attr source org_car2x_veins_modules_mac_sigChannelBusy
scalar Scenario.node[141].veinsmobility startTime 362
scalar Scenario.node[141].veinsmobility totalTime 26
scalar Scenario.node[141].veinsmobility stopTime 389
scalar Scenario.node[141].veinsmobility minSpeed 1.9870588642867
scalar Scenario.node[141].veinsmobility maxSpeed 12.655480029132
scalar Scenario.node[141].veinsmobility totalDistance 2635.3913392348
scalar Scenario.node[141].veinsmobility totalCO2Emission 75.092427268831
scalar Scenario.node[142].appl generatedWSMs 0
scalar Scenario.node[142].appl receivedWSMs 0
scalar Scenario.node[142].appl generatedBSMs 0
scalar Scenario.node[142].appl receivedBSMs 0
scalar Scenario.node[142].appl generatedWSAs 0
scalar Scenario.node[142].appl receivedWSAs 0
scalar Scenario.node[142].nic.phy80211p busyTime 0
scalar Scenario.node[142].nic.mac1609_4 ReceivedUnicastPackets 0
scalar Scenario.node[142].nic.mac1609_4 ReceivedBroadcasts 0
scalar Scenario.node[142].nic.mac1609_4 SentPackets 0
scalar Scenario.node[142].nic.mac1609_4 SentAcknowledgements 0
scalar Scenario.node[142].nic.mac1609_4 RetriesExceeded 0
scalar Scenario.node[142].nic.mac1609_4 SNIRLostPackets 0
scalar Scenario.node[142].nic.mac1609_4 RXTXLostPackets 0
scalar Scenario.node[142].nic.mac1609_4 TotalLostPackets 0
scalar Scenario.node[142].nic.mac1609_4 DroppedPacketsInMac 0
scalar Scenario.node[142].nic.mac1609_4 TooLittleTime 0
scalar Scenario.node[142].nic.mac1609_4 TimesIntoBackoff 0
scalar Scenario.node[142].nic.mac1609_4 SlotsBackoff 0
scalar Scenario.node[142].nic.mac1609_4 NumInternalContention 0
scalar Scenario.node[142].nic.mac1609_4 totalBusyTime 0
scalar Scenario.node[142].nic.mac1609_4 retriesExceeded:count 0
attr source org_car2x_veins_modules_mac_sigRetriesExceeded
scalar Scenario.node[142].nic.mac1609_4 sentAcks:count 0
attr source org_car2x_veins_modules_mac_sigSentAck
scalar Scenario.node[142].nic.mac1609_4 sentPackets:count 0
attr source org_car2x_veins_modules_mac_sigSentPacket
scalar Scenario.node[142].nic.mac1609_4 collisions:count 0
attr source org_car2x_veins_modules_mac_sigCollision
scalar Scenario.node[142].nic.mac1609_4 channelBusy:timeavg 0
attr source org_car2x_veins_modules_mac_sigChannelBusy
scalar Scenario.node[142].veinsmobility startTime 365
scalar Scenario.node[142].veinsmobility totalTime 25
scalar Scenario.node[142].veinsmobility stopTime 391
scalar Scenario.node[142].veinsmobility minSpeed 2.4523080519633
scalar Scenario.node[142].veinsmobility maxSpeed 14.982829004615
scalar Scenario.node[142].veinsmobility totalDistance 2694.2164309973
scalar Scenario.node[142].veinsmobility totalCO2Emission 86.116813576374
scalar Scenario.node[143].appl generatedWSMs 0
scalar Scenario.node[143].appl receivedWSMs 0
scalar Scenario.node[143].appl generatedBSMs 0
scalar Scenario.node[143].appl receivedBSMs 0
scalar Scenario.node[143].appl generatedWSAs 0
scalar Scenario.node[143].appl receivedWSAs 0
scalar Scenario.node[143].nic.phy80211p busyTime 0
scalar Scenario.node[143].nic.mac1609_4 ReceivedUnicastPackets 0
scalar Scenario.node[143].nic.mac1609_4 ReceivedBroadcasts 0
scalar Scenario.node[143].nic.mac1609_4 SentPackets 0
scalar Scenario.node[143].nic.mac1609_4 SentAcknowledgements 0
scalar Scenario.node[143].nic.mac1609_4 RetriesExceeded 0
scalar Scenario.node[143].nic.mac1609_4 SNIRLostPackets 0
scalar Scenario.node[143].nic.mac1609_4 RXTXLostPackets 0
scalar Scenario.node[143].nic.mac1609_4 TotalLostPackets 0
scalar Scenario.node[143].nic.mac1609_4 DroppedPacketsInMac 0
scalar Scenario.node[143].nic.mac1609_4 TooLittleTime 0
scalar Scenario.node[143].nic.mac1609_4 TimesIntoBackoff 0
scalar Scenario.node[143].nic.mac1609_4 SlotsBackoff 0
scalar Scenario.node[143].nic.mac1609_4 NumInternalContention 0
scalar Scenario.node[143].nic.mac1609_4 totalBusyTime 0
scalar Scenario.node[143].nic.mac1609_4 retriesExceeded:count 0
attr source org_car2x_veins_modules_mac_sigRetriesExceeded
scalar Scenario.node[143].nic.mac1609_4 sentAcks:count 0
attr source org_car2x_veins_modules_mac_sigSentAck
scalar Scenario.node[143].nic.mac1609_4 sentPackets:count 0
attr source org_car2x_veins_modules_mac_sigSentPacket
scalar Scenario.node[143].nic.mac1609_4 collisions:count 0
attr source org_car2x_veins_modules_mac_sigCollision
scalar Scenario.node[143].nic.mac1609_4 channelBusy:timeavg 0
attr source org_car2x_veins_modules_mac_sigChannelBusy
scalar Scenario.node[143].veinsmobility startTime 368
scalar Scenario.node[143].veinsmobility totalTime 24
scalar Scenario.node[143].veinsmobility stopTime 393
scalar Scenario.node[143].veinsmobility minSpeed 2.5021708072862
scalar Scenario.node[143].veinsmobility maxSpeed 14.054254193854
scalar Scenario.node[143].veinsmobility totalDistance 2721.5473197561
scalar Scenario.node[143].veinsmobility totalCO2Emission 75.846148468567
scalar Scenario.node[144].appl generatedWSMs 0
scalar Scenario.node[144].appl receivedWSMs 0
scalar Scenario.node[144].appl generatedBSMs 0
scalar Scenario.node[144].appl receivedBSMs 0
scalar Scenario.node[144].appl generatedWSAs 0
scalar Scenario.node[144].appl receivedWSAs 0
scalar Scenario.node[144].nic.phy80211p busyTime 0
scalar Scenario.node[144].nic.mac1609_4 ReceivedUnicastPackets 0
scalar Scenario.node[144].nic.mac1609_4 ReceivedBroadcasts 0
scalar Scenario.node[144].nic.mac1609_4 SentPackets 0
scalar Scenario.node[144].nic.mac1609_4 SentAcknowledgements 0
scalar Scenario.node[144].nic.mac1609_4 RetriesExceeded 0
scalar Scenario.node[144].nic.mac1609_4 SNIRLostPackets 0
scalar Scenario.node[144].nic.mac1609_4 RXTXLostPackets 0
scalar Scenario.node[144].nic.mac1609_4 TotalLostPackets 0
scalar Scenario.node[144].nic.mac1609_4 DroppedPacketsInMac 0
scalar Scenario.node[144].nic.mac1609_4 TooLittleTime 0
scalar Scenario.node[144].nic.mac1609_4 TimesIntoBackoff 0
scalar Scenario.node[144].nic.mac1609_4 SlotsBackoff 0
scalar Scenario.node[144].nic.mac1609_4 NumInternalContention 0
scalar Scenario.node[144].nic.mac1609_4 totalBusyTime 0
scalar Scenario.node[144].nic.mac1609_4 retriesExceeded:count 0
attr source org_car2x_veins_modules_mac_sigRetriesExceeded
scalar Scenario.node[144].nic.mac1609_4 sentAcks:count 0
attr source org_car2x_veins_modules_mac_sigSentAck
scalar Scenario.node[144].nic.mac1609_4 sentPackets:count 0
attr source org_car2x_veins_modules_mac_sigSentPacket
scalar Scenario.node[144].nic.mac1609_4 collisions:count 0
attr source org_car2x_veins_modules_mac_sigCollision
scalar Scenario.node[144].nic.mac1609_4 channelBusy:timeavg 0
attr source org_car2x_veins_modules_mac_sigChannelBusy
scalar Scenario.node[144].veinsmobility startTime 371
scalar Scenario.node[144].veinsmobility totalTime 25
scalar Scenario.node[144].veinsmobility stopTime 397
scalar Scenario.node[144].veinsmobility minSpeed 1.453629277274
scalar Scenario.node[144].veinsmobility maxSpeed 13.466198981019
scalar Scenario.node[144].veinsmobility totalDistance 2667.4440097159
scalar Scenario.node[144].veinsmobility totalCO2Emission 69.916982524782
scalar Scenario.node[145].appl generatedWSMs 0
scalar Scenario.node[145].appl receivedWSMs 0
scalar Scenario.node[145].appl generatedBSMs 0
scalar Scenario.node[145].appl receivedBSMs 0
scalar Scenario.node[145].appl generatedWSAs 0
scalar Scenario.node[145].appl receivedWSAs 0
scalar Scenario.node[145].nic.phy80211p busyTime 0
scalar Scenario.node[145].nic.mac1609_4 ReceivedUnicastPackets 0
scalar Scenario.node[145].nic.mac1609_4 ReceivedBroadcasts 0
scalar Scenario.node[145].nic.mac1609_4 SentPackets 0
scalar Scenario.node[145].nic.mac1609_4 SentAcknowledgements 0
scalar Scenario.node[145].nic.mac1609_4 RetriesExceeded 0
scalar Scenario.node[145].nic.mac1609_4 SNIRLostPackets 0
scalar Scenario.node[145].nic.mac1609_4 RXTXLostPackets 0
scalar Scenario.node[145].nic.mac1609_4 TotalLostPackets 0
scalar Scenario.node[145].nic.mac1609_4 DroppedPacketsInMac 0
scalar Scenario.node[145].nic.mac1609_4 TooLittleTime 0
scalar Scenario.node[145].nic.mac1609_4 TimesIntoBackoff 0
scalar Scenario.node[145].nic.mac1609_4 SlotsBackoff 0
scalar Scenario.node[145].nic.mac1609_4 NumInternalContention 0
scalar Scenario.node[145].nic.mac1609_4 totalBusyTime 0
scalar Scenario.node[145].nic.mac1609_4 retriesExceeded:count 0
attr source org_car2x_veins_modules_mac_sigRetriesExceeded
scalar Scenario.node[145].nic.mac1609_4 sentAcks:count 0
attr source org_car2x_veins_modules_mac_sigSentAck
scalar Scenario.node[145].nic.mac1609_4 sentPackets:count 0
attr source org_car2x_veins_modules_mac_sigSentPacket
scalar Scenario.node[145].nic.mac1609_4 collisions:count 0
attr source org_car2x_veins_modules_mac_sigCollision
scalar Scenario.node[145].nic.mac1609_4 channelBusy:timeavg 0
attr source org_car2x_veins_modules_mac_sigChannelBusy
scalar Scenario.node[145].veinsmobility startTime 374
scalar Scenario.node[145].veinsmobility totalTime 27
scalar Scenario.node[145].veinsmobility stopTime 402
scalar Scenario.node[145].veinsmobility minSpeed 1.8878775807796
scalar Scenario.node[145].veinsmobility maxSpeed 12.381264474307
scalar Scenario.node[145].veinsmobility totalDistance 2726.9450849555
scalar Scenario.node[145].veinsmobility totalCO2Emission 71.973450935248
scalar Scenario.node[146].appl generatedWSMs 0
scalar Scenario.node[146].appl receivedWSMs 0
scalar Scenario.node[146].appl generatedBSMs 0
scalar Scenario.node[146].appl receivedBSMs 0
scalar Scenario.node[146].appl generatedWSAs 0
scalar Scenario.node[146].appl receivedWSAs 0
scalar Scenario.node[146].nic.phy80211p busyTime 0
scalar Scenario.node[146].nic.mac1609_4 ReceivedUnicastPackets 0
scalar Scenario.node[146].nic.mac1609_4 ReceivedBroadcasts 0
scalar Scenario.node[146].nic.mac1609_4 SentPackets 0
scalar Scenario.node[146].nic.mac1609_4 SentAcknowledgements 0
scalar Scenario.node[146].nic.mac1609_4 RetriesExceeded 0
scalar Scenario.node[146].nic.mac1609_4 SNIRLostPackets 0
scalar Scenario.node[146].nic.mac1609_4 RXTXLostPackets 0
scalar Scenario.node[146].nic.mac1609_4 TotalLostPackets 0
scalar Scenario.node[146].nic.mac1609_4 DroppedPacketsInMac 0
scalar Scenario.node[146].nic.mac1609_4 TooLittleTime 0
scalar Scenario.node[146].nic.mac1609_4 TimesIntoBackoff 0
scalar Scenario.node[146].nic.mac1609_4 SlotsBackoff 0
scalar Scenario.node[146].nic.mac1609_4 NumInternalContention 0
scalar Scenario.node[146].nic.mac1609_4 totalBusyTime 0
scalar Scenario.node[146].nic.mac1609_4 retriesExceeded:count 0
attr source org_car2x_veins_modules_mac_sigRetriesExceeded
scalar Scenario.node[146].nic.mac1609_4 sentAcks:count 0
attr source org_car2x_veins_modules_mac_sigSentAck
scalar Scenario.node[146].nic.mac1609_4 sentPackets:count 0
attr source org_car2x_veins_modules_mac_sigSentPacket
scalar Scenario.node[146].nic.mac1609_4 collisions:count 0
attr source org_car2x_veins_modules_mac_sigCollision
scalar Scenario.node[146].nic.mac1609_4 channelBusy:timeavg 0
attr source org_car2x_veins_modules_mac_sigChannelBusy
scalar Scenario.node[146].veinsmobility startTime 377
scalar Scenario.node[146].veinsmobility totalTime 27
scalar Scenario.node[146].veinsmobility stopTime 405
scalar Scenario.node[146].veinsmobility minSpeed 1.3473878446035
scalar Scenario.node[146].veinsmobility maxSpeed 12.219923018669
scalar Scenario.node[146].veinsmobility totalDistance 2646.4280036602
scalar Scenario.node[146].veinsmobility totalCO2Emission 69.878908675496
scalar Scenario.node[147].appl generatedWSMs 0
scalar Scenario.node[147].appl receivedWSMs 0
scalar Scenario.node[147].appl generatedBSMs 0
scalar Scenario.node[147].appl receivedBSMs 0
scalar Scenario.node[147].appl generatedWSAs 0
scalar Scenario.node[147].appl receivedWSAs 0
scalar Scenario.node[147].nic.phy80211p busyTime 0
scalar Scenario.node[147].nic.mac1609_4 ReceivedUnicastPackets 0
scalar Scenario.node[147].nic.mac1609_4 ReceivedBroadcasts 0
scalar Scenario.node[147].nic.mac1609_4 SentPackets 0
scalar Scenario.node[147].nic.mac1609_4 SentAcknowledgements 0
scalar Scenario.node[147].nic.mac1609_4 RetriesExceeded 0
scalar Scenario.node[147].nic.mac1609_4 SNIRLostPackets 0
scalar Scenario.node[147].nic.mac1609_4 RXTXLostPackets 0
scalar Scenario.node[147].nic.mac1609_4 TotalLostPackets 0
scalar Scenario.node[147].nic.mac1609_4 DroppedPacketsInMac 0
scalar Scenario.node[147].nic.mac1609_4 TooLittleTime 0
scalar Scenario.node[147].nic.mac1609_4 TimesIntoBackoff 0
scalar Scenario.node[147].nic.mac1609_4 SlotsBackoff 0
scalar Scenario.node[147].nic.mac1609_4 NumInternalContention 0
scalar Scenario.node[147].nic.mac1609_4 totalBusyTime 0
scalar Scenario.node[147].nic.mac1609_4 retriesExceeded:count 0
attr source org_car2x_veins_modules_mac_sigRetriesExceeded
scalar Scenario.node[147].nic.mac1609_4 sentAcks:count 0
attr source org_car2x_veins_modules_mac_sigSentAck
scalar Scenario.node[147].nic.mac1609_4 sentPackets:count 0
attr source org_car2x_veins_modules_mac_sigSentPacket
scalar Scenario.node[147].nic.mac1609_4 collisions:count 0
attr source org_car2x_veins_modules_mac_sigCollision
scalar Scenario.node[147].nic.mac1609_4 channelBusy:timeavg 0
attr source org_car2x_veins_modules_mac_sigChannelBusy
scalar Scenario.node[147].veinsmobility startTime 380
scalar Scenario.node[147].veinsmobility totalTime 27
scalar Scenario.node[147].veinsmobility stopTime 408
scalar Scenario.node[147].veinsmobility minSpeed 1.4249047322432
scalar Scenario.node[147].veinsmobility maxSpeed 12.366558797419
scalar Scenario.node[147].veinsmobility totalDistance 2698.7658072557
scalar Scenario.node[147].veinsmobility totalCO2Emission 69.545208534542
scalar Scenario.node[148].appl generatedWSMs 0
scalar Scenario.node[148].appl receivedWSMs 0
scalar Scenario.node[148].appl generatedBSMs 0
scalar Scenario.node[148].appl receivedBSMs 0
scalar Scenario.node[148].appl generatedWSAs 0
scalar Scenario.node[148].appl receivedWSAs 0
scalar Scenario.node[148].nic.phy80211p busyTime 0
scalar Scenario.node[148].nic.mac1609_4 ReceivedUnicastPackets 0
scalar Scenario.node[148].nic.mac1609_4 ReceivedBroadcasts 0
scalar Scenario.node[148].nic.mac1609_4 SentPackets 0
scalar Scenario.node[148].nic.mac1609_4 SentAcknowledgements 0
scalar Scenario.node[148].nic.mac1609_4 RetriesExceeded 0
scalar Scenario.node[148].nic.mac1609_4 SNIRLostPackets 0
scalar Scenario.node[148].nic.mac1609_4 RXTXLostPackets 0
scalar Scenario.node[148].nic.mac1609_4 TotalLostPackets 0
scalar Scenario.node[148].nic.mac1609_4 DroppedPacketsInMac 0
scalar Scenario.node[148].nic.mac1609_4 TooLittleTime 0
scalar Scenario.node[148].nic.mac1609_4 TimesIntoBackoff 0
scalar Scenario.node[148].nic.mac1609_4 SlotsBackoff 0
scalar Scenario.node[148].nic.mac1609_4 NumInternalContention 0
scalar Scenario.node[148].nic.mac1609_4 totalBusyTime 0
scalar Scenario.node[148].nic.mac1609_4 retriesExceeded:count 0
attr source org_car2x_veins_modules_mac_sigRetriesExceeded
scalar Scenario.node[148].nic.mac1609_4 sentAcks:count 0
attr source org_car2x_veins_modules_mac_sigSentAck
scalar Scenario.node[148].nic.mac1609_4 sentPackets:count 0
attr source org_car2x_veins_modules_mac_sigSentPacket
scalar Scenario.node[148].nic.mac1609_4 collisions:count 0
attr source org_car2x_veins_modules_mac_sigCollision
scalar Scenario.node[148].nic.mac1609_4 channelBusy:timeavg 0
attr source org_car2x_veins_modules_mac_sigChannelBusy
scalar Scenario.node[148].veinsmobility startTime 383
scalar Scenario.node[148].veinsmobility totalTime 26
scalar Scenario.node[148].veinsmobility stopTime 410
scalar Scenario.node[148].veinsmobility minSpeed 2.0350579475285
scalar Scenario.node[148].veinsmobility maxSpeed 14.348157651734
scalar Scenario.node[148].veinsmobility totalDistance 2728.8450746643
scalar Scenario.node[148].veinsmobility totalCO2Emission 77.815786186268
scalar Scenario.node[149].appl generatedWSMs 0
scalar Scenario.node[149].appl receivedWSMs 0
scalar Scenario.node[149].appl generatedBSMs 0
scalar Scenario.node[149].appl receivedBSMs 0
scalar Scenario.node[149].appl generatedWSAs 0
scalar Scenario.node[149].appl receivedWSAs 0
scalar Scenario.node[149].nic.phy80211p busyTime 0
scalar Scenario.node[149].nic.mac1609_4 ReceivedUnicastPackets 0
scalar Scenario.node[149].nic.mac1609_4 ReceivedBroadcasts 0
scalar Scenario.node[149].nic.mac1609_4 SentPackets 0
scalar Scenario.node[149].nic.mac1609_4 SentAcknowledgements 0
scalar Scenario.node[149].nic.mac1609_4 RetriesExceeded 0
scalar Scenario.node[149].nic.mac1609_4 SNIRLostPackets 0
scalar Scenario.node[149].nic.mac1609_4 RXTXLostPackets 0
scalar Scenario.node[149].nic.mac1609_4 TotalLostPackets 0
scalar Scenario.node[149].nic.mac1609_4 DroppedPacketsInMac 0
scalar Scenario.node[149].nic.mac1609_4 TooLittleTime 0
scalar Scenario.node[149].nic.mac1609_4 TimesIntoBackoff 0
scalar Scenario.node[149].nic.mac1609_4 SlotsBackoff 0
scalar Scenario.node[149].nic.mac1609_4 NumInternalContention 0
scalar Scenario.node[149].nic.mac1609_4 totalBusyTime 0
scalar Scenario.node[149].nic.mac1609_4 retriesExceeded:count 0
attr source org_car2x_veins_modules_mac_sigRetriesExceeded
scalar Scenario.node[149].nic.mac1609_4 sentAcks:count 0
attr source org_car2x_veins_modules_mac_sigSentAck
scalar Scenario.node[149].nic.mac1609_4 sentPackets:count 0
attr source org_car2x_veins_modules_mac_sigSentPacket
scalar Scenario.node[149].nic.mac1609_4 collisions:count 0
attr source org_car2x_veins_modules_mac_sigCollision
scalar Scenario.node[149].nic.mac1609_4 channelBusy:timeavg 0
attr source org_car2x_veins_modules_mac_sigChannelBusy
scalar Scenario.node[149].veinsmobility startTime 386
scalar Scenario.node[149].veinsmobility totalTime 25
scalar Scenario.node[149].veinsmobility stopTime 412
scalar Scenario.node[149].veinsmobility minSpeed 1.9206296366872
scalar Scenario.node[149].veinsmobility maxSpeed 13.435140106182
scalar Scenario.node[149].veinsmobility totalDistance 2639.8974536064
scalar Scenario.node[149].veinsmobility totalCO2Emission 69.791650163073
