version 2
run General-0-20211130-12:21:54-12649
attr configname General
attr datetime 20211130-12:21:54
attr experiment General
attr inifile omnetpp.ini
attr iterationvars ""
attr iterationvarsf ""
attr measurement ""
attr network org.car2x.veins.nodes.Scenario
attr processid 12649
attr repetition 0
attr replication #0
attr resultdir results
attr runnumber 0
attr seedset 0
param *.playgroundSizeX 3000m
param *.playgroundSizeY 2000m
param *.playgroundSizeZ 50m
param *.manager.updateInterval 1s
param *.manager.host "\"localhost\""
param *.manager.port 9999
param *.manager.autoShutdown true
param *.manager.launchConfig "xmldoc(\"veins.launchd.xml\")"
param *.annotations.draw true
param *.connectionManager.sendDirect true
param *.connectionManager.maxInterfDist 500m
param *.connectionManager.drawMaxIntfDist false
param *.**.nic.mac1609_4.useServiceChannel false
param *.**.nic.mac1609_4.txPower 20mW
param *.**.nic.mac1609_4.bitrate 6Mbps
param *.**.nic.phy80211p.minPowerLevel -110dBm
param *.**.nic.phy80211p.useNoiseFloor true
param *.**.nic.phy80211p.noiseFloor -98dBm
param *.**.nic.phy80211p.decider "xmldoc(\"config.xml\")"
param *.**.nic.phy80211p.analogueModels "xmldoc(\"config.xml\")"
param *.**.nic.phy80211p.usePropagationDelay true
param *.**.nic.phy80211p.antenna "xmldoc(\"antenna.xml\", \"/root/Antenna[@id='monopole']\")"
param *.node[*].nic.phy80211p.antennaOffsetY "0 m"
param *.node[*].nic.phy80211p.antennaOffsetZ "0 m"
param *.node[*].applType "\"InteractingVehicle\""
param *.node[*].appl.headerLength "88 bit"
param *.node[*].appl.dataLengthBits "512 bit"
param *.node[*].appl.sendBeacons false
param *.node[*].appl.dataOnSch false
param *.node[*].appl.beaconInterval 1s
param *.node[*].veinsmobility.x 0
param *.node[*].veinsmobility.y 0
param *.node[*].veinsmobility.z 0
param *.obstacles.obstacles "xmldoc(\"config.xml\", \"//AnalogueModel[@type='SimpleObstacleShadowing']/obstacles\")"

vector 0 Scenario.node[0].veinsmobility posx ETV
vector 1 Scenario.node[0].veinsmobility posy ETV
vector 2 Scenario.node[0].veinsmobility speed ETV
vector 3 Scenario.node[0].veinsmobility acceleration ETV
vector 4 Scenario.node[0].veinsmobility co2emission ETV
vector 5 Scenario.node[1].veinsmobility posx ETV
vector 6 Scenario.node[1].veinsmobility posy ETV
vector 7 Scenario.node[1].veinsmobility speed ETV
vector 8 Scenario.node[1].veinsmobility acceleration ETV
vector 9 Scenario.node[1].veinsmobility co2emission ETV
vector 10 Scenario.node[2].veinsmobility posx ETV
vector 11 Scenario.node[2].veinsmobility posy ETV
0	9	8	2378.1077071429
0	19	9	2361.5192666423
0	29	10	2327.3217459325
0	39	11	2275.0700020052
0	49	12	2210.6460106383
0	59	13	2132.212905991
0	69	14	2037.3175786374
0	79	15	1935.1979911543
0	98	16	1834.9138770218
0	117	17	1730.0164049329
0	136	18	1622.2471717473
1	9	8	59.632292857143
1	19	9	76.220733357668
1	29	10	110.4182540675
1	39	11	162.66999799483
1	49	12	227.09398936173
1	59	13	305.52709400899
1	69	14	400.42242136255
1	79	15	502.54200884566
1	98	16	602.82612297821
1	117	17	707.72359506715
1	136	18	815.4928282527
2	19	9	2.3656493975548
2	29	10	4.8768504949287
2	39	11	7.4515326825902
2	49	12	9.1873962691287
2	59	13	11.185212181415
2	69	14	13.532861873158
2	79	15	14.563101371724
2	98	16	14.301347626649
2	117	17	14.959250789388
2	136	18	15.36878777437
3	29	10	2.5112010973739
3	39	11	2.5746821876615
3	49	12	1.7358635865385
3	59	13	1.9978159122868
3	69	14	2.3476496917428
3	79	15	1.0302394985653
3	98	16	-0.26175374507438
3	117	17	0.65790316273924
3	136	18	0.40953698498197
4	29	10	4.3074415471536
4	39	11	6.131347755747
4	49	12	5.4683231423283
4	59	13	7.1642316708755
4	69	14	9.6484467598985
4	79	15	5.7136846099157
4	98	16	1.1679414129965
4	117	17	4.5127378832356
4	136	18	3.7036100577553
5	79	15	2774.4273071429
5	98	16	2758.5883050144
5	117	17	2720.8184993113
5	136	18	2657.5340514394
6	79	15	1013.4
6	98	16	1013.4
6	117	17	1013.4
6	136	18	1013.4
7	98	16	1.5972831639228
7	117	17	3.8088936578948
7	136	18	6.3819161273073
8	117	17	2.211610493972
8	136	18	2.5730224694125
9	117	17	3.328978911834
9	136	18	5.3992915792338
10	136	18	2774.4273071429
11	136	18	1013.4
vector 12 Scenario.node[2].veinsmobility speed ETV
0	176	19	1531.9950852977
1	176	19	905.74491470233
2	176	19	12.870697153893
3	176	19	-2.4980906204775
4	176	19	0.973
5	176	19	2574.8432440511
6	176	19	1013.4
7	176	19	8.3389492205111
8	176	19	1.9570330932038
9	176	19	5.4988625648564
10	176	19	2756.8135591405
11	176	19	1013.4
12	176	19	1.7762572988868
vector 13 Scenario.node[2].veinsmobility acceleration ETV
vector 14 Scenario.node[2].veinsmobility co2emission ETV
vector 15 Scenario.node[3].veinsmobility posx ETV
vector 16 Scenario.node[3].veinsmobility posy ETV
vector 17 Scenario.node[3].veinsmobility speed ETV
vector 18 Scenario.node[3].veinsmobility acceleration ETV
vector 19 Scenario.node[3].veinsmobility co2emission ETV
4	216	20	0.973
4	256	21	0.973
4	329	22	3.6060717562566
4	390	23	5.2656560162582
4	451	24	6.0896777409275
4	512	25	9.4226442993023
4	573	26	10.341682922676
4	634	27	0.973
4	695	28	4.3347995868622
4	756	29	1.5793880248405
4	817	30	0.973
4	878	31	3.2605646971081
4	939	32	0.973
4	1000	33	4.1626362615032
3	216	20	-3.9520195643107
3	256	21	-4.0764752459945
3	329	22	1.4347570260055
3	390	23	1.8865424470045
3	451	24	1.8293019986944
3	512	25	2.5007992214756
3	573	26	2.304459202569
3	634	27	-0.30644119908989
3	695	28	0.5992305384716
3	756	29	-0.15526809638832
3	817	30	-0.70175777263939
3	878	31	0.33118503121659
3	939	32	-0.33088163735811
3	1000	33	0.57134173787199
2	216	20	8.9186775895822
2	256	21	4.8422023435877
2	329	22	6.2769593695932
2	390	23	8.1635018165977
2	451	24	9.9928038152921
2	512	25	12.493603036768
2	573	26	14.798062239337
2	634	27	14.491621040247
2	695	28	15.090851578718
2	756	29	14.93558348233
2	817	30	14.233825709691
2	878	31	14.565010740907
2	939	32	14.234129103549
2	1000	33	14.805470841421
1	216	20	968.28459310568
1	256	21	1002.2391535537
1	329	22	1009.4471871557
1	390	23	1013.1991998596
1	451	24	1013.4
1	512	25	1013.4
1	573	26	1013.4
1	634	27	1013.4
1	695	28	1013.4
1	756	29	1013.4
1	817	30	1013.4
1	878	31	1013.4
1	939	32	1013.4
1	1000	33	1013.4
0	216	20	1469.4554068943
0	256	21	1435.5008464463
0	329	22	1427.8415322308
0	390	23	1420.7067843984
0	451	24	1330.6419124875
0	512	25	1206.1815314355
0	573	26	1058.7642924116
0	634	27	914.39979872448
0	695	28	764.06581321526
0	756	29	615.27859739168
0	817	30	473.48224237358
0	878	31	328.38664573057
0	939	32	186.58726832452
0	1000	33	39.096225335914
vector 20 Scenario.node[4].veinsmobility posx ETV
vector 21 Scenario.node[4].veinsmobility posy ETV
vector 22 Scenario.node[4].veinsmobility speed ETV
vector 23 Scenario.node[4].veinsmobility acceleration ETV
vector 24 Scenario.node[4].veinsmobility co2emission ETV
9	216	20	6.7678433290806
9	256	21	6.1863116867043
9	329	22	8.1017470481023
9	390	23	4.074396367244
9	451	24	1.7605952269242
9	512	25	2.8876709763893
9	573	26	0.973
9	634	27	0.973
9	695	28	0.973
9	756	29	5.6010474647812
9	817	30	6.7776853319316
9	878	31	8.2560981305198
9	939	32	5.8680589054804
9	1000	33	2.2581358536279
9	1061	34	2.8875586326123
9	1101	35	2.1543395372574
9	1150	36	0.973
9	1199	37	3.9336063386162
9	1248	38	0.973
9	1297	39	0.973
8	216	20	2.024080570112
8	256	21	1.5185152296908
8	329	22	1.8416817353806
8	390	23	0.58129622222538
8	451	24	-0.087754243426025
8	512	25	0.23039420649875
8	573	26	-0.77412219529506
8	634	27	-1.8239532049994
8	695	28	-4.5
8	756	29	1.8037161043379
8	817	30	1.8839627243113
8	878	31	2.0077396200271
8	939	32	1.1170821139139
8	1000	33	0.057384504238144
8	1061	34	0.23026562719606
8	1101	35	0.019099992117845
8	1150	36	-0.45151740042493
8	1199	37	0.52450040713884
8	1248	38	-0.66541076167487
8	1297	39	-0.44334766422398
7	216	20	10.363029790623
7	256	21	11.881545020314
7	329	22	13.723226755694
7	390	23	14.30452297792
7	451	24	14.216768734494
7	512	25	14.447162940993
7	573	26	13.673040745698
7	634	27	11.849087540698
7	695	28	7.3490875406981
7	756	29	9.1528036450361
7	817	30	11.036766369347
7	878	31	13.044505989374
7	939	32	14.161588103288
7	1000	33	14.218972607527
7	1061	34	14.449238234723
7	1101	35	14.46833822684
7	1150	36	14.016820826416
7	1199	37	14.541321233554
7	1248	38	13.875910471879
7	1297	39	13.432562807656
6	216	20	1013.4
6	256	21	1013.4
6	329	22	1013.4
6	390	23	1013.4
6	451	24	1013.4
6	512	25	1013.4
6	573	26	1013.4
6	634	27	1013.4
6	695	28	1013.4
6	756	29	1013.4
6	817	30	1013.4
6	878	31	1013.4
6	939	32	1013.4
6	1000	33	1013.4
6	1061	34	1013.4
6	1101	35	1013.4
6	1150	36	1013.4
6	1199	37	1013.4
6	1248	38	1013.4
6	1297	39	1013.4
5	216	20	2472.0812199981
5	256	21	2354.2612735313
5	329	22	2218.1788163304
5	390	23	2076.3321012264
5	451	24	1935.3555760047
5	512	25	1792.0944124612
5	573	26	1656.5096104896
5	634	27	1539.0115193458
5	695	28	1466.1363924878
5	756	29	1430.5390532128
5	817	30	1417.9357853239
5	878	31	1287.9873484081
5	939	32	1146.9106192652
5	1000	33	1005.2622297899
5	1061	34	861.31995058405
5	1101	35	717.18739862099
5	1150	36	577.55283074973
5	1199	37	432.69322728686
5	1248	38	294.46239830246
5	1297	39	160.64816708137
vector 25 Scenario.node[5].veinsmobility posx ETV
vector 26 Scenario.node[5].veinsmobility posy ETV
vector 27 Scenario.node[6].veinsmobility posx ETV
vector 28 Scenario.node[6].veinsmobility posy ETV
vector 29 Scenario.node[5].veinsmobility speed ETV
14	216	20	2.6116930695776
14	256	21	3.9014679754244
14	329	22	5.7828725756006
14	390	23	5.4132348867895
14	451	24	8.5473499656636
14	512	25	10.177462644588
14	573	26	0.973
14	634	27	4.7078984085589
14	695	28	0.973
14	756	29	5.5617045117239
14	817	30	0.973
14	878	31	0.973
14	939	32	0.973
14	1000	33	5.6254387088102
14	1061	34	7.4455893668163
14	1101	35	6.3433240652043
14	1150	36	9.3205285034502
14	1199	37	2.4757960868756
14	1248	38	1.2267166083266
14	1297	39	1.447857653194
14	1346	40	3.7934996605511
14	1386	41	0.973
14	1426	42	1.9903089830652
14	1466	43	1.8878791479216
14	1515	44	3.5351806636463
13	216	20	1.6265549525851
13	256	21	1.9519408820895
13	329	22	2.3077643562108
13	390	23	1.6780295867007
13	451	24	2.3801559150219
13	512	25	2.3898994976151
13	573	26	-1.0439201195259
13	634	27	0.80251828881446
13	695	28	-0.61951419338584
13	756	29	1.0166056082118
13	817	30	-1.9142095924716
13	878	31	-3.9221275707574
13	939	32	-3.7846459642635
13	1000	33	2.4291044056183
13	1061	34	2.5080576555803
13	1101	35	1.679407831165
13	1150	36	2.251029318152
13	1199	37	0.1433383122431
13	1248	38	-0.23315173967276
13	1297	39	-0.16186176536139
13	1346	40	0.53403575092088
13	1386	41	-0.36580455179792
13	1426	42	0.0026171057717868
13	1466	43	-0.028228606237098
13	1515	44	0.4524762323359
12	216	20	3.4028122514719
12	256	21	5.3547531335615
12	329	22	7.6625174897723
12	390	23	9.340547076473
12	451	24	11.720702991495
12	512	25	14.11060248911
12	573	26	13.066682369584
12	634	27	13.869200658399
12	695	28	13.249686465013
12	756	29	14.266292073225
12	817	30	12.352082480753
12	878	31	8.4299549099956
12	939	32	4.6453089457321
12	1000	33	7.0744133513504
12	1061	34	9.5824710069307
12	1101	35	11.261878838096
12	1150	36	13.512908156248
12	1199	37	13.656246468491
12	1248	38	13.423094728818
12	1297	39	13.261232963457
12	1346	40	13.795268714378
12	1386	41	13.42946416258
12	1426	42	13.432081268351
12	1466	43	13.403852662114
12	1515	44	13.85632889445
11	216	20	1013.4
11	256	21	1013.4
11	329	22	1013.4
11	390	23	1013.4
11	451	24	1013.4
11	512	25	1013.4
11	573	26	1013.4
11	634	27	1013.4
11	695	28	1013.4
11	756	29	1013.4
11	817	30	1013.4
11	878	31	1013.4
11	939	32	1013.4
11	1000	33	1013.4
11	1061	34	1013.4
11	1101	35	1013.4
11	1150	36	1013.4
11	1199	37	1013.4
11	1248	38	1013.4
11	1297	39	1013.4
11	1346	40	1013.4
11	1386	41	1013.4
11	1426	42	1013.4
11	1466	43	1013.4
11	1515	44	1013.4
10	216	20	2723.0705436809
10	256	21	2669.9716641614
10	329	22	2593.9884987648
10	390	23	2501.3656324087
10	451	24	2385.1406299658
10	512	25	2245.2168719832
10	573	26	2115.6448496031
10	634	27	1978.1148839028
10	695	28	1846.7281536972
10	756	29	1705.2605444366
10	817	30	1582.7746476826
10	878	31	1499.1814083762
10	939	32	1453.1175294469
10	1000	33	1431.3050060656
10	1061	34	1421.7169148411
10	1101	35	1327.8592342245
10	1150	36	1193.2446083797
10	1199	37	1057.2020565067
10	1248	38	923.48214561072
10	1297	39	791.37469005969
10	1346	40	653.9472085034
10	1386	41	520.16384576322
10	1426	42	386.35441160228
10	1466	43	252.82618880034
10	1515	44	114.79043009161
vector 30 Scenario.node[5].veinsmobility acceleration ETV
vector 31 Scenario.node[5].veinsmobility co2emission ETV
vector 32 Scenario.node[6].veinsmobility speed ETV
vector 33 Scenario.node[6].veinsmobility acceleration ETV
vector 34 Scenario.node[6].veinsmobility co2emission ETV
19	390	23	2.9409678137599
19	451	24	4.9463108104029
19	512	25	4.9075368735776
19	573	26	5.2511901420474
19	634	27	7.230544468387
19	695	28	9.4553863022256
19	756	29	0.973
19	817	30	3.8589909280025
19	878	31	0.973
19	939	32	2.2610835134739
19	1000	33	0.973
19	1061	34	1.6959498871521
19	1101	35	0.973
19	1150	36	4.1876187450878
19	1199	37	4.6985595495637
19	1248	38	7.528543722651
19	1297	39	8.7180202193863
19	1346	40	5.5869241311064
19	1386	41	0.973
19	1426	42	0.973
19	1466	43	5.0366034392475
19	1515	44	0.973
19	1573	45	0.973
19	1610	46	4.8972617806005
19	1647	47	3.0938229739036
18	390	23	1.6113100742921
18	451	24	2.2573162979912
18	512	25	1.7090322415344
18	573	26	1.5384176130407
18	634	27	1.9341500595678
18	695	28	2.2274908732877
18	756	29	-0.68072354770266
18	817	30	0.55884302076884
18	878	31	-0.81366747396532
18	939	32	0.10202182359923
18	1000	33	-3.6798219897485
18	1061	34	0.026088314536118
18	1101	35	-3.8781696752296
18	1150	36	1.5876525437925
18	1199	37	1.5080662450055
18	1248	38	2.221823833324
18	1297	39	2.1699089774163
18	1346	40	1.0498190393075
18	1386	41	-0.28887203268241
18	1426	42	-0.80788230460603
18	1466	43	0.90507062512916
18	1515	44	-0.31036018293817
18	1573	45	-0.62280668744352
18	1610	46	0.86920892253984
18	1647	47	0.30898991287686
17	329	22	2.5672767461976
17	390	23	4.1785868204897
17	451	24	6.4359031184809
17	512	25	8.1449353600154
17	573	26	9.683352973056
17	634	27	11.617503032624
17	695	28	13.844993905912
17	756	29	13.164270358209
17	817	30	13.723113378978
17	878	31	12.909445905012
17	939	32	13.011467728612
17	1000	33	9.3316457388631
17	1061	34	9.3577340533992
17	1101	35	5.4795643781697
17	1150	36	7.0672169219622
17	1199	37	8.5752831669676
17	1248	38	10.797107000292
17	1297	39	12.967015977708
17	1346	40	14.016835017016
17	1386	41	13.727962984333
17	1426	42	12.920080679727
17	1466	43	13.825151304856
17	1515	44	13.514791121918
17	1573	45	12.891984434475
17	1610	46	13.761193357014
17	1647	47	14.070183269891
16	256	21	1013.4
16	329	22	1013.4
16	390	23	1013.4
16	451	24	1013.4
16	512	25	1013.4
16	573	26	1013.4
16	634	27	1013.4
16	695	28	1013.4
16	756	29	1013.4
16	817	30	1013.4
16	878	31	1013.4
16	939	32	1013.4
16	1000	33	1013.4
16	1061	34	1013.4
16	1101	35	1013.4
16	1150	36	1013.4
16	1199	37	1013.4
16	1248	38	1013.4
16	1297	39	1013.4
16	1346	40	1013.4
16	1386	41	1013.4
16	1426	42	1013.4
16	1466	43	1013.4
16	1515	44	1013.4
16	1573	45	1013.4
16	1610	46	1013.4
16	1647	47	1013.4
15	256	21	2774.4273071429
15	329	22	2748.9696407968
15	390	23	2707.5338784734
15	451	24	2643.7140840284
15	512	25	2562.9471596552
15	573	26	2466.9249565702
15	634	27	2351.7233070338
15	695	28	2214.4333806783
15	756	29	2083.8936548913
15	817	30	1947.8123219582
15	878	31	1819.7994900542
15	939	32	1690.7749878857
15	1000	33	1598.2403891007
15	1061	34	1505.4470929985
15	1101	35	1451.1105584322
15	1150	36	1431.1096951458
15	1199	37	1422.5293824872
15	1248	38	1340.57825845
15	1297	39	1211.4017714955
15	1346	40	1071.7670622585
15	1386	41	935.01007557732
15	1426	42	806.30115470878
15	1466	43	668.57598492061
15	1515	44	533.94260110629
15	1573	45	405.51357302608
15	1610	46	268.42554774589
15	1647	47	128.25938702432
vector 35 Scenario.node[7].veinsmobility posx ETV
vector 36 Scenario.node[7].veinsmobility posy ETV
vector 37 Scenario.node[7].veinsmobility speed ETV
vector 38 Scenario.node[7].veinsmobility acceleration ETV
vector 39 Scenario.node[7].veinsmobility co2emission ETV
24	1199	37	3.0614845037334
24	1248	38	3.759996623718
24	1297	39	6.1248264674032
24	1346	40	6.6045545937883
24	1386	41	4.8146004537448
24	1426	42	3.2600128389302
24	1466	43	3.1087634639852
24	1515	44	0.973
24	1573	45	3.0852707494803
24	1610	46	2.6966258653893
24	1647	47	1.9004960328366
24	1684	48	0.973
24	1712	49	0.973
24	1740	50	5.8704302690531
24	1768	51	8.9455587279094
24	1805	52	0.973
24	1842	53	3.1353102034252
24	1891	54	0.973
24	1940	55	2.1223086425515
24	1989	56	4.1739000429784
24	2036	57	2.0642510662967
24	2085	58	0.973
24	2134	59	0.973
24	2183	60	1.3594803218481
24	2232	61	4.7967728504315
24	2281	62	0.973
23	1199	37	1.8409282227047
23	1248	38	1.7236262955237
23	1297	39	2.3625791280065
23	1346	40	2.0256168721709
23	1386	41	1.1252016426999
23	1426	42	0.5096887314925
23	1466	43	0.42719581609126
23	1515	44	-0.66607470079325
23	1573	45	0.43444739389233
23	1610	46	0.28341743662022
23	1647	47	0.01185480146669
23	1684	48	-1.2948181226625
23	1712	49	-3.022685598419
23	1740	50	1.8044736620272
23	1768	51	2.4286803526812
23	1805	52	-0.6229864453664
23	1842	53	0.4493513175752
23	1891	54	-0.90380606146064
23	1940	55	0.12848538174294
23	1989	56	0.80728921224363
23	2036	57	0.073125157575122
23	2085	58	-0.4867683008546
23	2134	59	-0.314955666475
23	2183	60	-0.15387432142161
23	2232	61	1.0087466016179
23	2281	62	-0.50731607419439
22	1150	36	2.1146570136538
22	1199	37	3.9555852363585
22	1248	38	5.6792115318822
22	1297	39	8.0417906598886
22	1346	40	10.06740753206
22	1386	41	11.192609174759
22	1426	42	11.702297906252
22	1466	43	12.129493722343
22	1515	44	11.46341902155
22	1573	45	11.897866415442
22	1610	46	12.181283852063
22	1647	47	12.193138653529
22	1684	48	10.898320530867
22	1712	49	7.8756349324477
22	1740	50	9.6801085944748
22	1768	51	12.108788947156
22	1805	52	11.48580250179
22	1842	53	11.935153819365
22	1891	54	11.031347757904
22	1940	55	11.159833139647
22	1989	56	11.967122351891
22	2036	57	12.040247509466
22	2085	58	11.553479208611
22	2134	59	11.238523542136
22	2183	60	11.084649220715
22	2232	61	12.093395822333
22	2281	62	11.586079748138
21	1101	35	1013.4
21	1150	36	1013.4
21	1199	37	1013.4
21	1248	38	1013.4
21	1297	39	1013.4
21	1346	40	1013.4
21	1386	41	1013.4
21	1426	42	1013.4
21	1466	43	1013.4
21	1515	44	1013.4
21	1573	45	1013.4
21	1610	46	1013.4
21	1647	47	1013.4
21	1684	48	1013.4
21	1712	49	1013.4
21	1740	50	1013.4
21	1768	51	1013.4
21	1805	52	1013.4
21	1842	53	1013.4
21	1891	54	1013.4
21	1940	55	1013.4
21	1989	56	1013.4
21	2036	57	1013.4
21	2085	58	1013.4
21	2134	59	1013.4
21	2183	60	1013.4
21	2232	61	1013.4
21	2281	62	1013.4
20	1101	35	2774.4273071429
20	1150	36	2753.4579150547
20	1199	37	2714.2334842255
20	1248	38	2657.9172057015
20	1297	39	2578.1730862772
20	1346	40	2478.3425158877
20	1386	41	2367.3542048945
20	1426	42	2251.3117112208
20	1466	43	2131.0330522929
20	1515	44	2017.3593328282
20	1573	45	1899.3775399099
20	1610	46	1778.5853189577
20	1647	47	1657.6755432539
20	1684	48	1549.6054615154
20	1712	49	1471.5089778892
20	1740	50	1430.5535547973
20	1768	51	1407.4007520467
20	1805	52	1292.9800079383
20	1842	53	1174.0828581008
20	1891	54	1064.18935969
20	1940	55	953.01589908374
20	1989	56	833.80028100865
20	2036	57	713.85619533703
20	2085	58	598.76126070936
20	2134	59	486.80389193428
20	2183	60	376.37940815818
20	2232	61	255.90586279009
20	2281	62	140.48616391626
vector 40 Scenario.node[8].veinsmobility posx ETV
vector 41 Scenario.node[8].veinsmobility posy ETV
vector 42 Scenario.node[9].veinsmobility posx ETV
vector 43 Scenario.node[9].veinsmobility posy ETV
vector 44 Scenario.node[8].veinsmobility speed ETV
31	1573	45	2.5667563555877
31	1610	46	2.9693992798641
31	1647	47	5.8912964618686
31	1684	48	4.7836406126299
31	1712	49	5.2842174096677
31	1740	50	6.5921301455787
31	1768	51	7.4829036597427
31	1805	52	11.089223183828
31	1842	53	0.973
31	1891	54	2.3107563254718
31	1940	55	0.973
31	1989	56	0.973
31	2036	57	0.973
31	2085	58	5.6668929024803
31	2134	59	5.120005597894
31	2183	60	5.070178457672
31	2232	61	7.7698415368342
31	2281	62	9.2800242476334
31	2330	63	5.5643706444459
31	2370	64	3.1694997002468
31	2410	65	3.535548105562
31	2450	66	0.973
31	2490	67	2.7872683503216
31	2539	68	1.6863261373388
30	1573	45	1.525964243128
30	1610	46	1.3756513528526
30	1647	47	2.4793437642744
30	1684	48	1.4939663887955
30	1712	49	1.4433793524047
30	1740	50	1.6510461944155
30	1768	51	1.6721094863024
30	1805	52	2.304926016557
30	1842	53	-1.0207185247447
30	1891	54	0.047774894931353
30	1940	55	-1.7510281575585
30	1989	56	-4.5
30	2036	57	-4.049125754312
30	2085	58	2.4482415592531
30	2134	59	1.6702538255369
30	2183	60	1.3810818607453
30	2232	61	2.0165264641168
30	2281	62	2.0999555712799
30	2330	63	0.92867793667834
30	2370	64	0.26163849942386
30	2410	65	0.34177489732392
30	2450	66	-0.37169183928054
30	2490	67	0.15389556318987
30	2539	68	-0.1365214045858
29	1515	44	1.9664169136435
29	1573	45	3.4923811567714
29	1610	46	4.868032509624
29	1647	47	7.3473762738984
29	1684	48	8.8413426626939
29	1712	49	10.284722015099
29	1740	50	11.935768209514
29	1768	51	13.607877695817
29	1805	52	15.912803712374
29	1842	53	14.892085187629
29	1891	54	14.93986008256
29	1940	55	13.188831925002
29	1989	56	8.6888319250017
29	2036	57	4.6397061706897
29	2085	58	7.0879477299427
29	2134	59	8.7582015554797
29	2183	60	10.139283416225
29	2232	61	12.155809880342
29	2281	62	14.255765451622
29	2330	63	15.1844433883
29	2370	64	15.446081887724
29	2410	65	15.787856785048
29	2450	66	15.416164945767
29	2490	67	15.570060508957
29	2539	68	15.433539104371
26	1466	43	59.632292857143
26	1515	44	73.421229630664
26	1573	45	97.910554669336
26	1610	46	132.04624177664
26	1647	47	183.56761864699
26	1684	48	245.56500797123
26	1712	49	317.6836826101
26	1740	50	401.37984695983
26	1768	51	496.80120133669
26	1805	52	608.38519085437
26	1842	53	712.81168335113
26	1891	54	817.57318364863
26	1940	55	910.05609928501
26	1989	56	970.98405063568
26	2036	57	1003.5186645273
26	2085	58	1010.0355617329
26	2134	59	1013.4
26	2183	60	1013.4
26	2232	61	1013.4
26	2281	62	1013.4
26	2330	63	1013.4
26	2370	64	1013.4
26	2410	65	1013.4
26	2450	66	1013.4
26	2490	67	1013.4
26	2539	68	1013.4
25	1466	43	2378.1077071429
25	1515	44	2364.3187703693
25	1573	45	2339.8294453307
25	1610	46	2305.6937582234
25	1647	47	2254.172381353
25	1684	48	2192.1749920288
25	1712	49	2120.0563173899
25	1740	50	2036.3601530402
25	1768	51	1940.9387986633
25	1805	52	1829.3548091456
25	1842	53	1724.9283166489
25	1891	54	1620.1668163514
25	1940	55	1527.683900715
25	1989	56	1466.7559493643
25	2036	57	1434.2213354727
25	2085	58	1427.0409569864
25	2134	59	1414.3684038135
25	2183	60	1313.3615866556
25	2232	61	1192.2662768997
25	2281	62	1050.2513597396
25	2330	63	898.98501930849
25	2370	64	745.11225483454
25	2410	65	587.83475324595
25	2450	66	434.26001921086
25	2490	67	279.15218856781
25	2539	68	125.40437440571
vector 45 Scenario.node[8].veinsmobility acceleration ETV
vector 46 Scenario.node[8].veinsmobility co2emission ETV
vector 47 Scenario.node[9].veinsmobility speed ETV
vector 48 Scenario.node[9].veinsmobility acceleration ETV
vector 49 Scenario.node[9].veinsmobility co2emission ETV
vector 50 Scenario.node[10].veinsmobility posx ETV
vector 51 Scenario.node[10].veinsmobility posy ETV
vector 52 Scenario.node[10].veinsmobility speed ETV
34	1610	46	2.8516590870371
34	1647	47	3.8043052138271
34	1684	48	4.1254850050948
34	1712	49	5.7699383964746
34	1740	50	5.2715297091208
34	1768	51	8.4682379398189
34	1805	52	2.3677550525512
34	1842	53	0.973
34	1891	54	3.8544468993922
34	1940	55	0.973
34	1989	56	2.054579587122
34	2036	57	0.973
34	2085	58	0.973
34	2134	59	0.973
34	2183	60	4.805366401483
34	2232	61	5.8138621456922
34	2281	62	6.0455408498243
34	2330	63	7.9264266392962
34	2370	64	2.318506554146
34	2410	65	0.973
34	2450	66	1.3718470379367
34	2490	67	0.973
34	2539	68	4.3030253702149
34	2597	69	2.2076828082073
34	2634	70	0.973
34	2671	71	3.4372753157386
34	2729	72	0.973
33	1610	46	1.7544836585876
33	1647	47	1.8186493640533
33	1684	48	1.55320983727
33	1712	49	1.9218587005511
33	1740	50	1.4187564496882
33	1768	51	2.1685530676972
33	1805	52	0.14824487060362
33	1842	53	-0.31253595941234
33	1891	54	0.60994572159834
33	1940	55	-0.31855238766875
33	1989	56	0.045239468524233
33	2036	57	-1.7444041780611
33	2085	58	-3.8463736988138
33	2134	59	-1.5190348867354
33	2183	60	1.8328545625453
33	2232	61	1.8598952766275
33	2281	62	1.6244671842083
33	2330	63	1.9321435085342
33	2370	64	0.12074614011217
33	2410	65	-0.49681181169581
33	2450	66	-0.17038653290365
33	2490	67	-0.43880834020674
33	2539	68	0.78323955910746
33	2597	69	0.093914177035913
33	2634	70	-0.7298242744524
33	2671	71	0.50883573309984
33	2729	72	-0.66483019057196
32	1573	45	1.9329202841036
32	1610	46	3.6874039426912
32	1647	47	5.5060533067444
32	1684	48	7.0592631440144
32	1712	49	8.9811218445655
32	1740	50	10.399878294254
32	1768	51	12.568431361951
32	1805	52	12.716676232555
32	1842	53	12.404140273142
32	1891	54	13.014085994741
32	1940	55	12.695533607072
32	1989	56	12.740773075596
32	2036	57	10.996368897535
32	2085	58	7.1499951987211
32	2134	59	5.6309603119857
32	2183	60	7.4638148745311
32	2232	61	9.3237101511586
32	2281	62	10.948177335367
32	2330	63	12.880320843901
32	2370	64	13.001066984013
32	2410	65	12.504255172317
32	2450	66	12.333868639414
32	2490	67	11.895060299207
32	2539	68	12.678299858315
32	2597	69	12.77221403535
32	2634	70	12.042389760898
32	2671	71	12.551225493998
32	2729	72	11.886395303426
28	1515	44	1013.4
28	1573	45	1013.4
28	1610	46	1013.4
28	1647	47	1013.4
28	1684	48	1013.4
28	1712	49	1013.4
28	1740	50	1013.4
28	1768	51	1013.4
28	1805	52	1013.4
28	1842	53	1013.4
28	1891	54	1013.4
28	1940	55	1013.4
28	1989	56	1013.4
28	2036	57	1013.4
28	2085	58	1013.4
28	2134	59	1013.4
28	2183	60	1013.4
28	2232	61	1013.4
28	2281	62	1013.4
28	2330	63	1013.4
28	2370	64	1013.4
28	2410	65	1013.4
28	2450	66	1013.4
28	2490	67	1013.4
28	2539	68	1013.4
28	2597	69	1013.4
28	2634	70	1013.4
28	2671	71	1013.4
28	2729	72	1013.4
27	1515	44	2774.4273071429
27	1573	45	2755.2600554085
27	1610	46	2718.6949677548
27	1647	47	2664.0957632965
27	1684	48	2594.0945972612
27	1712	49	2505.0358685244
27	1740	50	2401.9084468132
27	1768	51	2277.2771881928
27	1805	52	2151.1759016688
27	1842	53	2028.1737886902
27	1891	54	1899.1233232337
27	1940	55	1773.2316915145
27	1989	56	1646.8914555312
27	2036	57	1537.8491051785
27	2085	58	1466.9482206461
27	2134	59	1434.144878919
27	2183	60	1426.6766864405
27	2232	61	1396.5470608117
27	2281	62	1287.4821002094
27	2330	63	1159.1692639854
27	2370	64	1029.6535633383
27	2410	65	905.08706647275
27	2450	66	782.21794807753
27	2490	67	663.72020702399
27	2539	68	537.41988942831
27	2597	69	410.18400550915
27	2634	70	290.21857888178
27	2671	71	165.18416702668
27	2729	72	46.772746042191
vector 53 Scenario.node[11].veinsmobility posx ETV
vector 54 Scenario.node[11].veinsmobility posy ETV
vector 55 Scenario.node[10].veinsmobility acceleration ETV
vector 56 Scenario.node[10].veinsmobility co2emission ETV
vector 57 Scenario.node[11].veinsmobility speed ETV
vector 58 Scenario.node[11].veinsmobility acceleration ETV
vector 59 Scenario.node[11].veinsmobility co2emission ETV
vector 60 Scenario.node[12].veinsmobility posx ETV
vector 61 Scenario.node[12].veinsmobility posy ETV
vector 62 Scenario.node[13].veinsmobility posx ETV
vector 63 Scenario.node[13].veinsmobility posy ETV
vector 64 Scenario.node[12].veinsmobility speed ETV
vector 65 Scenario.node[13].veinsmobility speed ETV
vector 66 Scenario.node[12].veinsmobility acceleration ETV
vector 67 Scenario.node[12].veinsmobility co2emission ETV
vector 68 Scenario.node[13].veinsmobility acceleration ETV
vector 69 Scenario.node[13].veinsmobility co2emission ETV
vector 70 Scenario.node[14].veinsmobility posx ETV
vector 71 Scenario.node[14].veinsmobility posy ETV
39	1842	53	2.6171576498436
39	1891	54	3.74541261534
39	1940	55	4.2422321555942
39	1989	56	5.2135343762175
39	2036	57	3.0967949156917
39	2085	58	1.581196886349
39	2134	59	3.8501843121949
39	2183	60	0.973
39	2232	61	3.7398635909626
39	2281	62	2.1704988189157
39	2330	63	0.973
39	2370	64	0.973
39	2410	65	1.9597921665205
39	2450	66	2.9781359881144
39	2490	67	0.973
39	2539	68	6.8599825281107
39	2597	69	0.973
39	2634	70	2.2848197830739
39	2671	71	3.211912173164
39	2729	72	3.155156738911
39	2787	73	0.973
39	2857	74	3.1233151350397
39	2915	75	1.2760917770971
39	2973	76	2.3581701161042
39	3085	77	0.973
39	3197	78	1.3847414144835
39	3297	79	2.3152310243171
39	3397	80	1.8380926101533
39	3495	81	0.973
39	3607	82	2.9072566951377
39	3731	83	1.4169054297908
38	1842	53	1.5789946682518
38	1891	54	1.8360343949171
38	1940	55	1.6421129219932
38	1989	56	1.7257366852835
38	2036	57	0.64732736595069
38	2085	58	-0.024060554453172
38	2134	59	0.87387534303125
38	2183	60	-0.60025665822904
38	2232	61	0.80624815523624
38	2281	62	0.17259195172228
38	2330	63	-0.9539794123033
38	2370	64	-0.21098888912238
38	2410	65	0.13390439234208
38	2450	66	0.52957199637313
38	2490	67	-3.2117009750992
38	2539	68	2.3533864822704
38	2597	69	-0.59179195524523
38	2634	70	0.31395308582578
38	2671	71	0.67109756914348
38	2729	72	0.5910486723762
38	2787	73	-0.33621985241771
38	2857	74	0.55888246994
38	2915	75	-0.17333330030087
38	2973	76	0.25030324154068
38	3085	77	-0.48013528108131
38	3197	78	-0.1227098533418
38	3297	79	0.25253378762864
38	3397	80	0.055599857307971
38	3495	81	-0.45134729072452
38	3607	82	0.48708366570063
38	3731	83	-0.11392076336779
37	1805	52	1.9267319109989
37	1842	53	3.5057265792508
37	1891	54	5.3417609741678
37	1940	55	6.9838738961611
37	1989	56	8.7096105814446
37	2036	57	9.3569379473953
37	2085	58	9.3328773929421
37	2134	59	10.206752735973
37	2183	60	9.6064960777443
37	2232	61	10.412744232981
37	2281	62	10.585336184703
37	2330	63	9.6313567723995
37	2370	64	9.4203678832771
37	2410	65	9.5542722756192
37	2450	66	10.083844271992
37	2490	67	6.8721432968932
37	2539	68	9.2255297791636
37	2597	69	8.6337378239184
37	2634	70	8.9476909097442
37	2671	71	9.6187884788876
37	2729	72	10.209837151264
37	2787	73	9.8736172988461
37	2857	74	10.432499768786
37	2915	75	10.259166468485
37	2973	76	10.509469710026
37	3085	77	10.029334428945
37	3197	78	9.9066245756028
37	3297	79	10.159158363231
37	3397	80	10.214758220539
37	3495	81	9.7634109298149
37	3607	82	10.250494595516
37	3731	83	10.136573832148
36	1768	51	59.632292857143
36	1805	52	73.142949888191
36	1842	53	97.725855889022
36	1891	54	135.18342850295
36	1940	55	184.15584880724
36	1989	56	245.22950454945
36	2036	57	310.84235849472
36	2085	58	376.28649467633
36	2134	59	447.85843202228
36	2183	60	515.22124105429
36	2232	61	588.23763491829
36	2281	62	662.46428053175
36	2330	63	730.00141808198
36	2370	64	796.05905632978
36	2410	65	863.05566087048
36	2450	66	933.76573772946
36	2490	67	981.95467912941
36	2539	68	1009.4802559259
36	2597	69	1013.2992360172
36	2634	70	1013.4
36	2671	71	1013.4
36	2729	72	1013.4
36	2787	73	1013.4
36	2857	74	1013.4
36	2915	75	1013.4
36	2973	76	1013.4
36	3085	77	1013.4
36	3197	78	1013.4
36	3297	79	1013.4
36	3397	80	1013.4
36	3495	81	1013.4
36	3607	82	1013.4
36	3731	83	1013.4
35	1768	51	2378.1077071429
35	1805	52	2364.5970501118
35	1842	53	2340.014144111
35	1891	54	2302.556571497
35	1940	55	2253.5841511928
35	1989	56	2192.5104954505
35	2036	57	2126.8976415053
35	2085	58	2061.4535053237
35	2134	59	1989.8815679777
35	2183	60	1922.5187589457
35	2232	61	1849.5023650817
35	2281	62	1775.2757194683
35	2330	63	1707.738581918
35	2370	64	1641.6809436702
35	2410	65	1574.6843391295
35	2450	66	1503.9742622705
35	2490	67	1455.7853208706
35	2539	68	1427.7965370188
35	2597	69	1420.1902711766
35	2634	70	1335.8125620811
35	2671	71	1239.9908783108
35	2729	72	1138.281209884
35	2787	73	1039.9209396113
35	2857	74	935.99312209316
35	2915	75	833.79203853172
35	2973	76	729.09745195685
35	3085	77	629.18593875673
35	3197	78	530.49685235062
35	3297	79	429.29204239027
35	3397	80	327.53335062285
35	3495	81	230.27094832653
35	3607	82	128.15625334419
35	3731	83	27.176428869318
vector 72 Scenario.node[14].veinsmobility speed ETV
vector 73 Scenario.node[14].veinsmobility acceleration ETV
vector 74 Scenario.node[14].veinsmobility co2emission ETV
vector 75 Scenario.node[15].veinsmobility posx ETV
vector 76 Scenario.node[15].veinsmobility posy ETV
vector 77 Scenario.node[16].veinsmobility posx ETV
vector 78 Scenario.node[16].veinsmobility posy ETV
vector 79 Scenario.node[15].veinsmobility speed ETV
vector 80 Scenario.node[15].veinsmobility acceleration ETV
vector 81 Scenario.node[15].veinsmobility co2emission ETV
vector 82 Scenario.node[16].veinsmobility speed ETV
vector 83 Scenario.node[16].veinsmobility acceleration ETV
vector 84 Scenario.node[16].veinsmobility co2emission ETV
vector 85 Scenario.node[17].veinsmobility posx ETV
vector 86 Scenario.node[17].veinsmobility posy ETV
46	2597	69	3.8801220337139
46	2634	70	5.6044710061398
46	2671	71	4.5816242501219
46	2729	72	8.3278948404469
46	2787	73	9.6840319534486
46	2857	74	3.2474072960449
46	2915	75	2.5164055212552
46	2973	76	4.5811424995702
46	3085	77	0.973
46	3197	78	1.4087291573223
46	3297	79	0.973
46	3397	80	0.973
46	3495	81	4.1258703054046
46	3607	82	4.984073455357
46	3731	83	6.9110231186028
46	3876	84	8.3604706295319
46	4016	85	4.8602342877593
46	4186	86	2.1133210515304
46	4356	87	0.973
46	4520	88	2.8209769779945
46	4689	89	4.0616422380964
46	4865	90	2.2567452407429
46	5041	91	1.4912415361297
46	5207	92	0.973
45	2597	69	2.3347878072644
45	2634	70	2.4548404037487
45	2671	71	1.4767944908468
45	2729	72	2.4908609070117
45	2787	73	2.3983116553165
45	2857	74	0.37435990523179
45	2915	75	0.14713730267249
45	2973	76	0.7070306321606
45	3085	77	-0.5513606877299
45	3197	78	-0.18393033780158
45	3297	79	-4.1404842272036
45	3397	80	-3.1900147482171
45	3495	81	1.3661668825895
45	3607	82	1.4846706941957
45	3731	83	1.8916518694023
45	3876	84	2.0031791317277
45	4016	85	0.8291523912673
45	4186	86	0.018960414640604
45	4356	87	-0.73770569055341
45	4520	88	0.25044908933342
45	4689	89	0.58534436877817
45	4865	90	0.055855825776234
45	5041	91	-0.16394883969333
45	5207	92	-0.29967436792795
44	2539	68	2.1855615584878
44	2597	69	4.5203493657522
44	2634	70	6.9751897695009
44	2671	71	8.4519842603477
44	2729	72	10.942845167359
44	2787	73	13.341156822676
44	2857	74	13.715516727908
44	2915	75	13.86265403058
44	2973	76	14.569684662741
44	3085	77	14.018323975011
44	3197	78	13.834393637209
44	3297	79	9.6939094100057
44	3397	80	6.5038946617886
44	3495	81	7.870061544378
44	3607	82	9.3547322385737
44	3731	83	11.246384107976
44	3876	84	13.249563239704
44	4016	85	14.078715630971
44	4186	86	14.097676045612
44	4356	87	13.359970355058
44	4520	88	13.610419444392
44	4689	89	14.19576381317
44	4865	90	14.251619638946
44	5041	91	14.087670799253
44	5207	92	13.787996431325
41	2490	67	59.632292857143
41	2539	68	74.957918839879
41	2597	69	106.65557723883
41	2634	70	155.56710258609
41	2671	71	214.83422735913
41	2729	72	291.56780256805
41	2787	73	385.11885302797
41	2857	74	481.29499536336
41	2915	75	578.50289599451
41	2973	76	680.66864692493
41	3085	77	778.96813856427
41	3197	78	875.9778712613
41	3297	79	943.95364131057
41	3397	80	989.56034437074
41	3495	81	1009.3198527257
41	3607	82	1013.3848364828
41	3731	83	1013.4
41	3876	84	1013.4
41	4016	85	1013.4
41	4186	86	1013.4
41	4356	87	1013.4
41	4520	88	1013.4
41	4689	89	1013.4
41	4865	90	1013.4
41	5041	91	1013.4
41	5207	92	1013.4
40	2490	67	2378.1077071429
40	2539	68	2362.7820811601
40	2597	69	2331.0844227612
40	2634	70	2282.1728974139
40	2671	71	2222.9057726409
40	2729	72	2146.172197432
40	2787	73	2052.621146972
40	2857	74	1956.4450046366
40	2915	75	1859.2371040055
40	2973	76	1757.0713530751
40	3085	77	1658.7718614357
40	3197	78	1561.7621287387
40	3297	79	1493.7863586894
40	3397	80	1448.1796556293
40	3495	81	1428.0147905536
40	3607	82	1419.7482932623
40	3731	83	1308.4287106081
40	3876	84	1176.4375080115
40	4016	85	1036.1863485183
40	4186	86	895.74630672881
40	4356	87	762.65523633531
40	4520	88	627.0692100031
40	4689	89	485.65202487944
40	4865	90	343.67840800909
40	5041	91	203.33803776913
40	5207	92	65.983002177165
vector 87 Scenario.node[17].veinsmobility speed ETV
49	2634	70	2.3408812604338
49	2671	71	4.7914782660092
49	2729	72	5.2210792208638
49	2787	73	7.583492273463
49	2857	74	6.4573167748241
49	2915	75	10.264672224576
49	2973	76	8.2871553981017
49	3085	77	5.6515217927163
49	3197	78	2.7399720091507
49	3297	79	0.973
49	3397	80	0.973
49	3495	81	0.973
49	3607	82	0.973
49	3731	83	3.7689349691026
49	3876	84	5.8466325637152
49	4016	85	5.8681934420792
49	4186	86	8.061956273475
49	4356	87	6.7654639370844
49	4520	88	6.6164842446928
49	4689	89	0.973
49	4865	90	5.2896969768915
49	5041	91	0.973
49	5207	92	1.6733874372032
49	5406	93	1.2280554422757
48	2634	70	1.4910441078944
48	2671	71	2.5390347848181
48	2729	72	2.0280163117917
48	2787	73	2.4414596055634
48	2857	74	1.6487449898385
48	2915	75	2.4195827968419
48	2973	76	1.6030559406616
48	3085	77	0.83520726480056
48	3197	78	0.10054469546303
48	3297	79	-2.8902332384079
48	3397	80	-3.411018201344
48	3495	81	-4.5
48	3607	82	-0.60630465655145
48	3731	83	1.4391689548036
48	3876	84	2.0318194778869
48	4016	85	1.6648786444915
48	4186	86	2.0631106226239
48	4356	87	1.4216497562593
48	4520	88	1.2287954851236
48	4689	89	-0.94125106980569
48	4865	90	0.86981238030564
48	5041	91	-0.40630777217414
48	5207	92	-0.11897070984098
48	5406	93	-0.2433760017242
47	2597	69	1.5227142807329
47	2634	70	3.0137583886273
47	2671	71	5.5527931734454
47	2729	72	7.5808094852371
47	2787	73	10.022269090801
47	2857	74	11.671014080639
47	2915	75	14.090596877481
47	2973	76	15.693652818142
47	3085	77	16.528860082943
47	3197	78	16.629404778406
47	3297	79	13.739171539998
47	3397	80	10.328153338654
47	3495	81	5.8281533386541
47	3607	82	5.2218486821027
47	3731	83	6.6610176369063
47	3876	84	8.6928371147932
47	4016	85	10.357715759285
47	4186	86	12.420826381909
47	4356	87	13.842476138168
47	4520	88	15.071271623292
47	4689	89	14.130020553486
47	4865	90	14.999832933792
47	5041	91	14.593525161617
47	5207	92	14.474554451776
47	5406	93	14.231178450052
43	2539	68	1013.4
43	2597	69	1013.4
43	2634	70	1013.4
43	2671	71	1013.4
43	2729	72	1013.4
43	2787	73	1013.4
43	2857	74	1013.4
43	2915	75	1013.4
43	2973	76	1013.4
43	3085	77	1013.4
43	3197	78	1013.4
43	3297	79	1013.4
43	3397	80	1013.4
43	3495	81	1013.4
43	3607	82	1013.4
43	3731	83	1013.4
43	3876	84	1013.4
43	4016	85	1013.4
43	4186	86	1013.4
43	4356	87	1013.4
43	4520	88	1013.4
43	4689	89	1013.4
43	4865	90	1013.4
43	5041	91	1013.4
43	5207	92	1013.4
43	5406	93	1013.4
42	2539	68	2774.4273071429
42	2597	69	2759.3277460392
42	2634	70	2729.4426720522
42	2671	71	2674.3799850601
42	2729	72	2599.2070537453
42	2787	73	2499.8240858118
42	2857	74	2384.0918092566
42	2915	75	2244.3664312059
42	2973	76	2088.7448069356
42	3085	77	1924.8410884545
42	3197	78	1759.940347228
42	3297	79	1623.6997781292
42	3397	80	1521.2835964474
42	3495	81	1463.4903790513
42	3607	82	1434.2053201615
42	3731	83	1427.5403957693
42	3876	84	1411.4309400786
42	4016	85	1308.2481155214
42	4186	86	1184.5127303067
42	4356	87	1046.6149717666
42	4520	88	896.47604037479
42	4689	89	755.71378490814
42	4865	90	606.28652063835
42	5041	91	460.90686537297
42	5207	92	316.71238782112
42	5406	93	174.94240461445
vector 88 Scenario.node[17].veinsmobility acceleration ETV
vector 89 Scenario.node[17].veinsmobility co2emission ETV
vector 90 Scenario.node[18].veinsmobility posx ETV
vector 91 Scenario.node[18].veinsmobility posy ETV
vector 92 Scenario.node[18].veinsmobility speed ETV
vector 93 Scenario.node[18].veinsmobility acceleration ETV
vector 94 Scenario.node[18].veinsmobility co2emission ETV
59	2915	75	2.9802342368425
59	2973	76	3.3325975553157
59	3085	77	6.231989643329
59	3197	78	4.9400657733066
59	3297	79	5.4001381955083
59	3397	80	7.2415308198609
59	3495	81	2.2387948391732
59	3607	82	0.973
59	3731	83	2.6517445231325
59	3876	84	2.1285636798382
59	4016	85	2.0178116836493
59	4186	86	0.973
59	4356	87	0.973
59	4520	88	6.0756113259489
59	4689	89	5.6500553424519
59	4865	90	6.9036025972805
59	5041	91	1.3728042589622
59	5207	92	3.4240967343362
59	5406	93	3.0118911341173
59	5572	94	0.973
59	5729	95	0.973
59	5886	96	2.2419703967286
59	6031	97	0.973
59	6200	98	1.8441422235469
59	6378	99	3.0471217133342
59	6556	100	0.973
58	2915	75	1.9719618899049
58	2973	76	1.5816980317235
58	3085	77	2.5416237283498
58	3197	78	1.4976272980915
58	3297	79	1.4330380046042
58	3397	80	1.7909847248086
58	3495	81	0.11372116114944
58	3607	82	-0.27820140281692
58	3731	83	0.25187275090721
58	3876	84	0.075408623600378
58	4016	85	0.037600033450872
58	4186	86	-0.78424150778397
58	4356	87	-4.5
58	4520	88	1.980610880279
58	4689	89	1.4985727415653
58	4865	90	1.6676140021994
58	5041	91	-0.16955214054324
58	5207	92	0.48781732772477
58	5406	93	0.33502155838069
58	5572	94	-0.56949676049408
58	5729	95	-0.44490446164273
58	5886	96	0.12623856994323
58	6031	97	-0.3520912283333
58	6200	98	0.0019199877977361
58	6378	99	0.39633432840929
58	6556	100	-0.28523654122837
57	2857	74	1.5927202033345
57	2915	75	3.5646820932394
57	2973	76	5.1463801249629
57	3085	77	7.6880038533127
57	3197	78	9.1856311514042
57	3297	79	10.618669156008
57	3397	80	12.409653880817
57	3495	81	12.523375041966
57	3607	82	12.24517363915
57	3731	83	12.497046390057
57	3876	84	12.572455013657
57	4016	85	12.610055047108
57	4186	86	11.825813539324
57	4356	87	7.325813539324
57	4520	88	9.306424419603
57	4689	89	10.804997161168
57	4865	90	12.472611163368
57	5041	91	12.303059022824
57	5207	92	12.790876350549
57	5406	93	13.12589790893
57	5572	94	12.556401148436
57	5729	95	12.111496686793
57	5886	96	12.237735256736
57	6031	97	11.885644028403
57	6200	98	11.887564016201
57	6378	99	12.28389834461
57	6556	100	11.998661803382
54	2787	73	59.632292857143
54	2857	74	70.800788220111
54	2915	75	95.797102918354
54	2973	76	131.88462315033
54	3085	77	185.79455359916
54	3197	78	250.20616758234
54	3297	79	324.66655113338
54	3397	80	411.68570335721
54	3495	81	499.50229273184
54	3607	82	585.36807425534
54	3731	83	673.00004148093
54	3876	84	761.1607901342
54	4016	85	849.58519827917
54	4186	86	932.51033691981
54	4356	87	983.88051127474
54	4520	88	1009.6908209432
54	4689	89	1013.4
54	4865	90	1013.4
54	5041	91	1013.4
54	5207	92	1013.4
54	5406	93	1013.4
54	5572	94	1013.4
54	5729	95	1013.4
54	5886	96	1013.4
54	6031	97	1013.4
54	6200	98	1013.4
54	6378	99	1013.4
54	6556	100	1013.4
53	2787	73	2378.1077071429
53	2857	74	2366.9392117799
53	2915	75	2341.9428970816
53	2973	76	2305.8553768497
53	3085	77	2251.9454464008
53	3197	78	2187.5338324177
53	3297	79	2113.0734488666
53	3397	80	2026.0542966428
53	3495	81	1938.2377072682
53	3607	82	1852.3719257447
53	3731	83	1764.7399585191
53	3876	84	1676.5792098658
53	4016	85	1588.1548017208
53	4186	86	1505.2296630802
53	4356	87	1453.8594887253
53	4520	88	1427.51003052
53	4689	89	1399.7770820726
53	4865	90	1275.5258205639
53	5041	91	1152.9636253685
53	5207	92	1025.5418287983
53	5406	93	894.78257139372
53	5572	94	769.6966000388
53	5729	95	649.04273515187
53	5886	96	527.13129064821
53	6031	97	408.72735381184
53	6200	98	290.30429019416
53	6378	99	167.93297230646
53	6556	100	48.403160468448
vector 95 Scenario.node[19].veinsmobility posx ETV
vector 96 Scenario.node[19].veinsmobility posy ETV
vector 97 Scenario.node[19].veinsmobility speed ETV
vector 98 Scenario.node[19].veinsmobility acceleration ETV
vector 99 Scenario.node[19].veinsmobility co2emission ETV
69	3197	78	3.3162513614834
69	3297	79	4.0075110488284
69	3397	80	5.212846020613
69	3495	81	4.538302152848
69	3607	82	7.6960055239046
69	3731	83	5.8411418161899
69	3876	84	0.973
69	4016	85	4.879502278554
69	4186	86	0.973
69	4356	87	3.112452228159
69	4520	88	0.973
69	4689	89	0.973
69	4865	90	0.973
69	5041	91	6.2422632122037
69	5207	92	7.0439322252347
69	5406	93	5.7592721832076
69	5572	94	1.6917397312745
69	5729	95	2.5827865394462
69	5886	96	1.2038987545055
69	6031	97	2.6731400091736
69	6200	98	3.6881289604687
69	6378	99	0.973
69	6556	100	0.973
69	6722	101	2.2670389906933
69	6886	102	1.8610770881662
69	7052	103	3.9908111232452
68	3197	78	2.0247857644921
68	3297	79	1.8173167285975
68	3397	80	1.9416470047785
68	3495	81	1.3173246746883
68	3607	82	2.1605297350092
68	3731	83	1.2927399341721
68	3876	84	-0.72352939527482
68	4016	85	0.95257411098573
68	4186	86	-0.39120797500946
68	4356	87	0.38297069973778
68	4520	88	-0.79312809119869
68	4689	89	-1.0965575179294
68	4865	90	-4.5
68	5041	91	2.2226572368294
68	5207	92	2.049248764175
68	5406	93	1.3413702492665
68	5572	94	-0.054773707524873
68	5729	95	0.24056343419943
68	5886	96	-0.22335932687856
68	6031	97	0.26875887853093
68	6200	98	0.56718242021743
68	6378	99	-0.70130578840617
68	6556	100	-0.48408921654336
68	6722	101	0.15154116021004
68	6886	102	0.0090014235116538
68	7052	103	0.69256596351042
65	3085	77	2.0778205730254
65	3197	78	4.1026063375175
65	3297	79	5.919923066115
65	3397	80	7.8615700708935
65	3495	81	9.1788947455818
65	3607	82	11.339424480591
65	3731	83	12.632164414763
65	3876	84	11.908635019488
65	4016	85	12.861209130474
65	4186	86	12.470001155465
65	4356	87	12.852971855202
65	4520	88	12.059843764004
65	4689	89	10.963286246074
65	4865	90	6.4632862460742
65	5041	91	8.6859434829036
65	5207	92	10.735192247079
65	5406	93	12.076562496345
65	5572	94	12.02178878882
65	5729	95	12.26235222302
65	5886	96	12.038992896141
65	6031	97	12.307751774672
65	6200	98	12.874934194889
65	6378	99	12.173628406483
65	6556	100	11.68953918994
65	6722	101	11.84108035015
65	6886	102	11.850081773662
65	7052	103	12.542647737172
63	2973	76	59.632292857143
63	3085	77	74.202415962463
63	3197	78	102.97077073106
63	3297	79	144.48253982561
63	3397	80	199.60955378487
63	3495	81	263.97393064691
63	3607	82	343.48840498148
63	3731	83	432.06784875018
63	3876	84	515.57374935719
63	4016	85	605.75930375346
63	4186	86	693.20162399868
63	4356	87	783.32941685561
63	4520	88	867.89562558104
63	4689	89	944.77253801414
63	4865	90	990.09448616152
63	5041	91	1009.8481718645
63	5207	92	1013.4
63	5406	93	1013.4
63	5572	94	1013.4
63	5729	95	1013.4
63	5886	96	1013.4
63	6031	97	1013.4
63	6200	98	1013.4
63	6378	99	1013.4
63	6556	100	1013.4
63	6722	101	1013.4
63	6886	102	1013.4
63	7052	103	1013.4
62	2973	76	2378.1077071429
62	3085	77	2363.5375840375
62	3197	78	2334.7692292689
62	3297	79	2293.2574601744
62	3397	80	2238.1304462151
62	3495	81	2173.7660693531
62	3607	82	2094.2515950185
62	3731	83	2005.6721512498
62	3876	84	1922.1662506428
62	4016	85	1831.9806962465
62	4186	86	1744.5383760013
62	4356	87	1654.4105831444
62	4520	88	1569.844374419
62	4689	89	1492.9674619859
62	4865	90	1447.6455138385
62	5041	91	1427.2959300861
62	5207	92	1397.8257536419
62	5406	93	1277.5199006649
62	5572	94	1157.7596994499
62	5729	95	1035.6030224864
62	5886	96	915.67143518314
62	6031	97	793.06249112898
62	6200	98	664.80331631765
62	6378	99	543.53049967715
62	6556	100	427.08014523405
62	6722	101	309.12014857731
62	6886	102	191.0704803825
62	7052	103	66.121519528206
56	2787	73	2.9636187672094
56	2857	74	3.3011924368544
56	2915	75	5.7743687390295
56	2973	76	4.8504368365426
56	3085	77	7.5515953936206
56	3197	78	7.6532389376906
56	3297	79	7.1398921630862
56	3397	80	4.2187778490038
56	3495	81	2.5137197697534
56	3607	82	0.973
56	3731	83	0.973
56	3876	84	0.973
56	4016	85	0.973
56	4186	86	0.973
56	4356	87	0.973
56	4520	88	1.1140469255881
56	4689	89	0.973
56	4865	90	1.1101876087864
56	5041	91	1.110064601846
56	5207	92	2.3875625228204
56	5406	93	2.5483627438336
56	5572	94	5.2896016559726
56	5729	95	6.6677610226947
56	5886	96	5.7816052520083
56	6031	97	6.8032224713171
56	6200	98	10.414126765461
56	6378	99	3.9386021164069
56	6556	100	4.1979364388313
56	6722	101	0.973
56	6886	102	0.973
56	7052	103	4.4507095820126
56	7194	104	0.973
56	7339	105	11.106650921606
55	2787	73	1.8881380040897
55	2857	74	1.5349268991034
55	2915	75	2.341368198581
55	2973	76	1.48609461335
55	3085	77	2.14285156962
55	3197	78	1.8231430200394
55	3297	79	1.4508825854864
55	3397	80	0.57183144626084
55	3495	81	0.097336241975427
55	3607	82	-1.0453380399372
55	3731	83	-3.8295774873974
55	3876	84	-1.7919280089007
55	4016	85	-4.4424181273207
55	4186	86	-2.3955108599885
55	4356	87	-1.4118527252647
55	4520	88	-0.073358296454867
55	4689	89	-0.12561388198269
55	4865	90	-0.0028564826623964
55	5041	91	-0.0025886518956584
55	5207	92	2.202902103588
55	5406	93	1.4348189815413
55	5572	94	2.5756275866413
55	5729	95	2.4367390892236
55	5886	96	1.6423232006375
55	6031	97	1.7122119921958
55	6200	98	2.4001390815014
55	6378	99	0.50193096254386
55	6556	100	0.53792116905097
55	6722	101	-1.7033934716037
55	6886	102	-0.63273700005692
55	7052	103	0.72815775552061
55	7194	104	-0.96457816226935
55	7339	105	2.4220610485412
52	2729	72	1.7858267050469
52	2787	73	3.6739647091366
52	2857	74	5.2088916082401
52	2915	75	7.5502598068211
52	2973	76	9.0363544201711
52	3085	77	11.179205989791
52	3197	78	13.002349009831
52	3297	79	14.453231595317
52	3397	80	15.025063041578
52	3495	81	15.122399283553
52	3607	82	14.077061243616
52	3731	83	10.247483756219
52	3876	84	8.4555557473179
52	4016	85	4.0131376199972
52	4186	86	1.6176267600087
52	4356	87	0.20577403474397
52	4520	88	0.13241573828911
52	4689	89	0.0068018563064173
52	4865	90	0.0039453736440209
52	5041	91	0.0013567217483625
52	5207	92	2.2042588253363
52	5406	93	3.6390778068777
52	5572	94	6.214705393519
52	5729	95	8.6514444827426
52	5886	96	10.29376768338
52	6031	97	12.005979675576
52	6200	98	14.406118757077
52	6378	99	14.908049719621
52	6556	100	15.445970888672
52	6722	101	13.742577417068
52	6886	102	13.109840417011
52	7052	103	13.837998172532
52	7194	104	12.873420010263
52	7339	105	15.295481058804
51	2671	71	1013.4
51	2729	72	1013.4
51	2787	73	1013.4
51	2857	74	1013.4
51	2915	75	1013.4
51	2973	76	1013.4
51	3085	77	1013.4
51	3197	78	1013.4
51	3297	79	1013.4
51	3397	80	1013.4
51	3495	81	1013.4
51	3607	82	1013.4
51	3731	83	1013.4
51	3876	84	1013.4
51	4016	85	1013.4
51	4186	86	1013.4
51	4356	87	1013.4
51	4520	88	1013.4
51	4689	89	1013.4
51	4865	90	1013.4
51	5041	91	1013.4
51	5207	92	1013.4
51	5406	93	1013.4
51	5572	94	1013.4
51	5729	95	1013.4
51	5886	96	1013.4
51	6031	97	1013.4
51	6200	98	1013.4
51	6378	99	1013.4
51	6556	100	1013.4
51	6722	101	1013.4
51	6886	102	1013.4
51	7052	103	1013.4
51	7194	104	1013.4
51	7339	105	1013.4
50	2671	71	2774.4273071429
50	2729	72	2756.7186668585
50	2787	73	2720.2868455245
50	2857	74	2668.6343601461
50	2915	75	2593.7643659889
50	2973	76	2504.1579391968
50	3085	77	2393.3025370579
50	3197	78	2264.3684580588
50	3297	79	2121.0471164386
50	3397	80	1972.0553716619
50	3495	81	1822.0984198521
50	3607	82	1682.5072640472
50	3731	83	1580.8910192312
50	3876	84	1497.043916536
50	4016	85	1457.248783938
50	4186	86	1441.2080503515
50	4356	87	1439.1675509285
50	4520	88	1437.8544880929
50	4689	89	1437.7870394282
50	4865	90	1437.7479162577
50	5041	91	1437.7344627141
50	5207	92	1434.6258027434
50	5406	93	1430.98459058
50	5572	94	1424.766240198
50	5729	95	1384.2235501362
50	5886	96	1281.6777717435
50	6031	97	1162.0750597853
50	6200	98	1018.5623337358
50	6378	99	870.04940728965
50	6556	100	716.17774858033
50	6722	101	579.27517396417
50	6886	102	448.67588014707
50	7052	103	310.82273078075
50	7194	104	182.57864016851
50	7339	105	30.206150395069
67	3197	78	3.6865422832004
67	3297	79	3.2312184151563
67	3397	80	6.2194175625118
67	3495	81	7.2279146514855
67	3607	82	6.2202424201449
67	3731	83	7.3197993156346
67	3876	84	0.973
67	4016	85	1.7379858499825
67	4186	86	1.8685301212493
67	4356	87	3.2878005047713
67	4520	88	0.973
67	4689	89	0.973
67	4865	90	0.973
67	5041	91	0.973
67	5207	92	1.1100749434463
67	5406	93	1.6151238957725
67	5572	94	3.3685673429991
67	5729	95	4.5156035852855
67	5886	96	6.7437570692979
67	6031	97	6.9114533509859
67	6200	98	6.2377644664842
67	6378	99	6.4928340706579
67	6556	100	0.973
67	6722	101	3.8868689856869
67	6886	102	3.4382085138031
67	7052	103	0.973
67	7194	104	1.8533111133134
67	7339	105	1.1331610995845
67	7484	106	3.456654127077
67	7608	107	2.0701673538323
66	3197	78	2.215249785874
66	3297	79	1.3220728738233
66	3397	80	2.385479334183
66	3495	81	2.2151106905658
66	3607	82	1.5325626499485
66	3731	83	1.6377852416252
66	3876	84	-0.30285115868319
66	4016	85	-0.067911026114597
66	4186	86	-0.025936103402637
66	4356	87	0.39888317261357
66	4520	88	-3.7756261586971
66	4689	89	-4.0982544450872
66	4865	90	-2.8376528680585
66	5041	91	-2.7895754610696
66	5207	92	-0.0050314441758822
66	5406	93	1.3499341909384
66	5572	94	2.3360393980751
66	5729	95	2.1905950624263
66	5886	96	2.5471800411819
66	6031	97	2.054709356295
66	6200	98	1.5180245904067
66	6378	99	1.3983139523896
66	6556	100	-0.92290616647806
66	6722	101	0.61454149570782
66	6886	102	0.44357736068778
66	7052	103	-0.43145148037001
66	7194	104	-0.029677481343969
66	7339	105	-0.25561474601272
66	7484	106	0.46543352149892
66	7608	107	0.031209450238386
64	3085	77	2.197288528271
64	3197	78	4.4125383141451
64	3297	79	5.7346111879684
64	3397	80	8.1200905221514
64	3495	81	10.335201212717
64	3607	82	11.867763862666
64	3731	83	13.505549104291
64	3876	84	13.202697945608
64	4016	85	13.134786919493
64	4186	86	13.108850816091
64	4356	87	13.507733988704
64	4520	88	9.732107830007
64	4689	89	5.6338533849197
64	4865	90	2.7962005168613
64	5041	91	0.0066250557916355
64	5207	92	0.0015936116157533
64	5406	93	1.3515278025542
64	5572	94	3.6875672006293
64	5729	95	5.8781622630556
64	5886	96	8.4253423042374
64	6031	97	10.480051660532
64	6200	98	11.998076250939
64	6378	99	13.396390203329
64	6556	100	12.473484036851
64	6722	101	13.088025532559
64	6886	102	13.531602893246
64	7052	103	13.100151412876
64	7194	104	13.070473931532
64	7339	105	12.81485918552
64	7484	106	13.280292707019
64	7608	107	13.311502157257
61	2973	76	1013.4
61	3085	77	1013.4
61	3197	78	1013.4
61	3297	79	1013.4
61	3397	80	1013.4
61	3495	81	1013.4
61	3607	82	1013.4
61	3731	83	1013.4
61	3876	84	1013.4
61	4016	85	1013.4
61	4186	86	1013.4
61	4356	87	1013.4
61	4520	88	1013.4
61	4689	89	1013.4
61	4865	90	1013.4
61	5041	91	1013.4
61	5207	92	1013.4
61	5406	93	1013.4
61	5572	94	1013.4
61	5729	95	1013.4
61	5886	96	1013.4
61	6031	97	1013.4
61	6200	98	1013.4
61	6378	99	1013.4
61	6556	100	1013.4
61	6722	101	1013.4
61	6886	102	1013.4
61	7052	103	1013.4
61	7194	104	1013.4
61	7339	105	1013.4
61	7484	106	1013.4
61	7608	107	1013.4
60	2973	76	2774.4273071429
60	3085	77	2752.638523249
60	3197	78	2708.882847782
60	3297	79	2652.0172143968
60	3397	80	2571.4966567598
60	3495	81	2469.0105868485
60	3607	82	2351.3272972941
60	3731	83	2217.4033783297
60	3876	84	2086.4825963515
60	4016	85	1956.2352346606
60	4186	86	1826.2450609288
60	4356	87	1692.2994761823
60	4520	88	1595.7938094883
60	4689	89	1539.9273120692
60	4865	90	1512.1995885581
60	5041	91	1512.1338930853
60	5207	92	1512.118090491
60	5406	93	1498.7160511878
60	5572	94	1462.1493446333
60	5729	95	1433.4133057975
60	5886	96	1424.9830219435
60	6031	97	1368.1653944461
60	6200	98	1248.6414158397
60	6378	99	1115.1875335192
60	6556	100	990.92757650721
60	6722	101	860.54560101083
60	6886	102	725.74473953138
60	7052	103	595.2419668814
60	7194	104	465.03483918076
60	7339	105	337.3741273217
60	7484	106	205.07679996672
60	7608	107	72.468566297706
74	4016	85	2.2610111256453
74	4186	86	3.5654263211339
74	4356	87	5.4680122382499
74	4520	88	6.3235802594138
74	4689	89	6.9443315677993
74	4865	90	10.488333382417
74	5041	91	3.8672974170201
74	5207	92	0.973
74	5406	93	2.565368721602
74	5572	94	0.973
74	5729	95	0.973
74	5886	96	0.973
74	6031	97	0.973
74	6200	98	5.9439185054335
74	6378	99	7.3185978016792
74	6556	100	9.70995874902
74	6722	101	4.5734685620125
74	6886	102	2.5658233477839
74	7052	103	4.0251363071491
74	7194	104	0.973
74	7339	105	2.2930409345926
74	7484	106	1.7948293960702
74	7608	107	0.973
74	7744	108	3.6383826294846
74	7869	109	1.8777176895425
73	4016	85	1.3160868794192
73	4186	86	1.8367298006313
73	4356	87	2.2732136241626
73	4520	88	2.0836861256743
73	4689	89	1.9050746662309
73	4865	90	2.5489337064093
73	5041	91	0.52082399248797
73	5207	92	-0.32643808729481
73	5406	93	0.15049594982993
73	5572	94	-1.1542992277108
73	5729	95	-2.8186924665386
73	5886	96	-0.82511511295389
73	6031	97	-3.6808131763599
73	6200	98	2.2975666218204
73	6378	99	2.2777452077484
73	6556	100	2.5330926296534
73	6722	101	0.78973194623943
73	6886	102	0.16789785993751
73	7052	103	0.56804701457731
73	7194	104	-0.39882717623841
73	7339	105	0.076507548755034
73	7484	106	-0.069733669050038
73	7608	107	-0.50523054564837
73	7744	108	0.48218939600047
73	7869	109	-0.043184553016909
72	3876	84	1.8259285141714
72	4016	85	3.1420153935906
72	4186	86	4.9787451942218
72	4356	87	7.2519588183844
72	4520	88	9.3356449440587
72	4689	89	11.24071961029
72	4865	90	13.789653316699
72	5041	91	14.310477309187
72	5207	92	13.984039221892
72	5406	93	14.134535171722
72	5572	94	12.980235944011
72	5729	95	10.161543477473
72	5886	96	9.3364283645187
72	6031	97	5.6556151881589
72	6200	98	7.9531818099793
72	6378	99	10.230927017728
72	6556	100	12.764019647381
72	6722	101	13.553751593621
72	6886	102	13.721649453558
72	7052	103	14.289696468135
72	7194	104	13.890869291897
72	7339	105	13.967376840652
72	7484	106	13.897643171602
72	7608	107	13.392412625954
72	7744	108	13.874602021954
72	7869	109	13.831417468937
71	3731	83	1013.4
71	3876	84	1013.4
71	4016	85	1013.4
71	4186	86	1013.4
71	4356	87	1013.4
71	4520	88	1013.4
71	4689	89	1013.4
71	4865	90	1013.4
71	5041	91	1013.4
71	5207	92	1013.4
71	5406	93	1013.4
71	5572	94	1013.4
71	5729	95	1013.4
71	5886	96	1013.4
71	6031	97	1013.4
71	6200	98	1013.4
71	6378	99	1013.4
71	6556	100	1013.4
71	6722	101	1013.4
71	6886	102	1013.4
71	7052	103	1013.4
71	7194	104	1013.4
71	7339	105	1013.4
71	7484	106	1013.4
71	7608	107	1013.4
71	7744	108	1013.4
71	7869	109	1013.4
70	3731	83	2774.4273071429
70	3876	84	2756.3210087259
70	4016	85	2725.1641107941
70	4186	86	2675.7938065742
70	4356	87	2603.8818289399
70	4520	88	2511.3075731793
70	4689	89	2399.842188798
70	4865	90	2263.1010315839
70	5041	91	2121.1952720552
70	5207	92	1982.5265425511
70	5406	93	1842.3654629593
70	5572	94	1713.6506618594
70	5729	95	1612.8866192631
70	5886	96	1520.3045949374
70	6031	97	1464.222302814
70	6200	98	1431.5462391749
70	6378	99	1421.3093116134
70	6556	100	1308.8368806758
70	6722	101	1173.8153754253
70	6886	102	1037.1212836868
70	7052	103	894.76834816381
70	7194	104	756.38850048288
70	7339	105	617.24649006608
70	7484	106	478.79916147938
70	7608	107	345.38490350053
70	7744	108	207.16710920083
70	7869	109	69.379516333667
84	5041	91	2.6540714618445
84	5207	92	3.5034448354649
84	5406	93	4.5147117191712
84	5572	94	4.309079773559
84	5729	95	6.806959431085
84	5886	96	6.3252154864509
84	6031	97	10.911492274228
84	6200	98	0.973
84	6378	99	4.2340092974116
84	6556	100	0.973
84	6722	101	0.973
84	6886	102	0.973
84	7052	103	0.973
84	7194	104	4.0325720958399
84	7339	105	5.2705667887845
84	7484	106	6.0860011783814
84	7608	107	9.2123680242089
84	7744	108	7.768023270601
84	7869	109	0.973
84	7964	110	0.973
84	8058	111	2.3098844189857
84	8176	112	3.5351220350738
84	8294	113	1.762754574108
84	8412	114	2.3200887609583
84	8530	115	0.973
83	5041	91	1.3989951908123
83	5207	92	1.5728685415583
83	5406	93	1.7192099715117
83	5572	94	1.3152661697008
83	5729	95	1.9894669687375
83	5886	96	1.5294030238641
83	6031	97	2.5001968774374
83	6200	98	-0.90119312389288
83	6378	99	0.62486940664239
83	6556	100	-0.92806937538553
83	6722	101	-0.53440118724455
83	6886	102	-4.5
83	7052	103	-3.1858647853369
83	7194	104	1.5742779378314
83	7339	105	1.7893671946833
83	7484	106	1.7603376503801
83	7608	107	2.3848481825553
83	7744	108	1.6463716229095
83	7869	109	-0.34050519929733
83	7964	110	-0.45268842815421
83	8058	111	0.093226699717343
83	8176	112	0.43813798064366
83	8294	113	-0.08193723638542
83	8412	114	0.080287789274006
83	8530	115	-0.41285830566194
82	4865	90	2.5922004112741
82	5041	91	3.9911956020864
82	5207	92	5.5640641436446
82	5406	93	7.2832741151564
82	5572	94	8.5985402848572
82	5729	95	10.588007253595
82	5886	96	12.117410277459
82	6031	97	14.617607154896
82	6200	98	13.716414031003
82	6378	99	14.341283437646
82	6556	100	13.41321406226
82	6722	101	12.878812875016
82	6886	102	8.3788128750157
82	7052	103	5.1929480896788
82	7194	104	6.7672260275101
82	7339	105	8.5565932221934
82	7484	106	10.316930872574
82	7608	107	12.701779055129
82	7744	108	14.348150678038
82	7869	109	14.007645478741
82	7964	110	13.554957050587
82	8058	111	13.648183750304
82	8176	112	14.086321730948
82	8294	113	14.004384494562
82	8412	114	14.084672283836
82	8530	115	13.671813978174
78	4689	89	59.632292857143
78	4865	90	77.809357612514
78	5041	91	105.79647643054
78	5207	92	144.81288650524
78	5406	93	195.88476530231
78	5572	94	256.17957232408
78	5729	95	330.42494804498
78	5886	96	415.39482549844
78	6031	97	517.89661921296
78	6200	98	614.07905362993
78	6378	99	714.64320622687
78	6556	100	808.6995374916
78	6722	101	899.00853311682
78	6886	102	957.76256445633
78	7052	103	994.17662923575
78	7194	104	1009.0565889601
78	7339	105	1013.1485373528
78	7484	106	1013.4
78	7608	107	1013.4
78	7744	108	1013.4
78	7869	109	1013.4
78	7964	110	1013.4
78	8058	111	1013.4
78	8176	112	1013.4
78	8294	113	1013.4
78	8412	114	1013.4
78	8530	115	1013.4
77	4689	89	2378.1077071429
77	4865	90	2359.9306423875
77	5041	91	2331.9435235695
77	5207	92	2292.9271134948
77	5406	93	2241.8552346977
77	5572	94	2181.5604276759
77	5729	95	2107.315051955
77	5886	96	2022.3451745016
77	6031	97	1919.843380787
77	6200	98	1823.6609463701
77	6378	99	1723.0967937731
77	6556	100	1629.0404625084
77	6722	101	1538.7314668832
77	6886	102	1479.9774355437
77	7052	103	1443.5633707642
77	7194	104	1428.3730019068
77	7339	105	1420.9683683623
77	7484	106	1330.0670874281
77	7608	107	1203.5328717508
77	7744	108	1060.5976195641
77	7869	109	921.05445585099
77	7964	110	786.02094192427
77	8058	111	650.058710274
77	8176	112	509.73177935614
77	8294	113	370.22110133449
77	8412	114	229.91060209093
77	8530	115	93.712967798497
89	5572	94	2.3888426927489
89	5729	95	3.5459957736551
89	5886	96	4.3470371540267
89	6031	97	6.1099390580611
89	6200	98	4.1585233849043
89	6378	99	0.973
89	6556	100	0.973
89	6722	101	3.7772453967722
89	6886	102	1.8197265416577
89	7052	103	0.973
89	7194	104	3.0855700005127
89	7339	105	1.9290977710299
89	7484	106	0.973
89	7608	107	0.973
89	7744	108	0.973
89	7869	109	0.973
89	7964	110	3.613092124667
89	8058	111	5.9238738892685
89	8176	112	1.7383961270891
89	8294	113	4.7037577868942
89	8412	114	0.973
89	8530	115	2.5288675628142
89	8648	116	2.5935674148402
89	8745	117	0.973
89	8830	118	3.5124530206479
89	8915	119	2.3985280523952
89	9012	120	0.973
89	9097	121	1.377360810117
89	9194	122	0.973
89	9291	123	1.7945966497942
89	9388	124	2.5613430113648
89	9485	125	1.4374135078483
89	9582	126	0.973
88	5572	94	1.5695922015235
88	5729	95	1.8696356835775
88	5886	96	1.7991760995938
88	6031	97	2.130071399617
88	6200	98	1.0482726826006
88	6378	99	-0.34765071778093
88	6556	100	-0.38555972408503
88	6722	101	0.87091902396642
88	6886	102	0.054801029223016
88	7052	103	-0.9747596035013
88	7194	104	0.61177486882079
88	7339	105	0.11069295259658
88	7484	106	-0.63226889560465
88	7608	107	-0.32492677539121
88	7744	108	-0.23004947836918
88	7869	109	-3.5025603743154
88	7964	110	1.3872239828575
88	8058	111	2.1003037793096
88	8176	112	0.072582693159521
88	8294	113	1.2659325401838
88	8412	114	-0.8956956054084
88	8530	115	0.39140795376152
88	8648	116	0.39096672828309
88	8745	117	-0.88256953258533
88	8830	118	0.79027084016707
88	8915	119	0.29577425045427
88	9012	120	-0.44882222323213
88	9097	121	-0.11681907959282
88	9194	122	-0.3139210405061
88	9291	123	0.076042157923803
88	9388	124	0.39218092451338
88	9485	125	-0.091824466059917
88	9582	126	-0.39059339480009
87	5406	93	1.4229795925319
87	5572	94	2.9925717940554
87	5729	95	4.8622074776329
87	5886	96	6.6613835772267
87	6031	97	8.7914549768437
87	6200	98	9.8397276594443
87	6378	99	9.4920769416633
87	6556	100	9.1065172175783
87	6722	101	9.9774362415447
87	6886	102	10.032237270768
87	7052	103	9.0574776672664
87	7194	104	9.6692525360872
87	7339	105	9.7799454886838
87	7484	106	9.1476765930792
87	7608	107	8.822749817688
87	7744	108	8.5927003393188
87	7869	109	5.0901399650034
87	7964	110	6.4773639478609
87	8058	111	8.5776677271706
87	8176	112	8.6502504203301
87	8294	113	9.9161829605139
87	8412	114	9.0204873551055
87	8530	115	9.411895308867
87	8648	116	9.8028620371501
87	8745	117	8.9202925045648
87	8830	118	9.7105633447319
87	8915	119	10.006337595186
87	9012	120	9.557515371954
87	9097	121	9.4406962923612
87	9194	122	9.1267752518551
87	9291	123	9.2028174097789
87	9388	124	9.5949983342923
87	9485	125	9.5031738682323
87	9582	126	9.1125804734323
86	5207	92	59.632292857143
86	5406	93	69.610530684175
86	5572	94	90.595085369476
86	5729	95	124.68992610424
86	5886	96	171.40097518709
86	6031	97	233.04854136793
86	6200	98	302.04682022902
86	6378	99	368.60729776045
86	6556	100	432.46414788666
86	6722	101	502.42806883442
86	6886	102	572.77626634217
86	7052	103	636.28924063312
86	7194	104	704.09211139885
86	7339	105	772.6711848681
86	7484	106	836.81665335519
86	7608	107	898.68366566606
86	7744	108	958.9375217383
86	7869	109	994.63067391718
86	7964	110	1008.9121778575
86	8058	111	1013.1097383191
86	8176	112	1013.4
86	8294	113	1013.4
86	8412	114	1013.4
86	8530	115	1013.4
86	8648	116	1013.4
86	8745	117	1013.4
86	8830	118	1013.4
86	8915	119	1013.4
86	9012	120	1013.4
86	9097	121	1013.4
86	9194	122	1013.4
86	9291	123	1013.4
86	9388	124	1013.4
86	9485	125	1013.4
86	9582	126	1013.4
85	5207	92	2378.1077071429
85	5406	93	2368.1294693158
85	5572	94	2347.1449146305
85	5729	95	2313.0500738958
85	5886	96	2266.3390248129
85	6031	97	2204.6914586321
85	6200	98	2135.693179771
85	6378	99	2069.1327022395
85	6556	100	2005.2758521133
85	6722	101	1935.3119311656
85	6886	102	1864.9637336578
85	7052	103	1801.4507593669
85	7194	104	1733.6478886012
85	7339	105	1665.0688151319
85	7484	106	1600.9233466448
85	7608	107	1539.0563343339
85	7744	108	1478.8024782617
85	7869	109	1443.1093260828
85	7964	110	1428.5452690493
85	8058	111	1421.1686980664
85	8176	112	1348.7030413819
85	8294	113	1249.918735028
85	8412	114	1160.057284317
85	8530	115	1066.2966555283
85	8648	116	968.64124411864
85	8745	117	879.77792735191
85	8830	118	783.04198892336
85	8915	119	683.35956853852
85	9012	120	588.14828308278
85	9097	121	494.10074095373
85	9194	122	403.18045780726
85	9291	123	311.50264811515
85	9388	124	215.91796006595
85	9485	125	121.24802078875
85	9582	126	30.469145011028
vector 100 Scenario.node[20].veinsmobility posx ETV
vector 101 Scenario.node[20].veinsmobility posy ETV
81	4865	90	3.1286435900918
81	5041	91	5.3583647939414
81	5207	92	5.0188865325084
81	5406	93	8.3715380963877
81	5572	94	8.4609034731781
81	5729	95	4.4373481292073
81	5886	96	3.3133090906944
81	6031	97	3.4493564079592
81	6200	98	0.973
81	6378	99	3.4038255361923
81	6556	100	0.973
81	6722	101	0.973
81	6886	102	0.973
81	7052	103	0.973
81	7194	104	0.973
81	7339	105	0.973
81	7484	106	1.1103789097825
81	7608	107	1.1100082428165
81	7744	108	0.973
81	7869	109	0.973
81	7964	110	0.973
81	8058	111	0.973
81	8176	112	1.6188428345785
81	8294	113	3.590477269857
81	8412	114	4.2746284684588
81	8530	115	4.6051074578234
81	8648	116	5.4844356797446
81	8745	117	5.8244303989199
81	8830	118	5.9294045438937
81	8915	119	5.7821605822445
81	9012	120	0.973
81	9097	121	0.973
81	9194	122	0.973
81	9291	123	1.2059227058814
81	9388	124	1.9334448927304
81	9485	125	0.973
81	9582	126	4.6567701975819
81	9679	127	0.973
80	4865	90	1.8865387409925
80	5041	91	2.4962695093593
80	5207	92	1.7420455712825
80	5406	93	2.5480530261295
80	5572	94	2.1022753534373
80	5729	95	0.74137353866906
80	5886	96	0.37718719663098
80	6031	97	0.39422473167069
80	6200	98	-1.0878631633939
80	6378	99	0.42041608255822
80	6556	100	-2.8622474766509
80	6722	101	-3.9348144676303
80	6886	102	-4.5
80	7052	103	-1.7609582622949
80	7194	104	-0.51479118120296
80	7339	105	-0.10325550236848
80	7484	106	-0.04972676838983
80	7608	107	-0.010270881600704
80	7744	108	-0.00018011291156296
80	7869	109	0
80	7964	110	0
80	8058	111	0
80	8176	112	1.356090676575
80	8294	113	2.4783830557484
80	8412	114	2.0269472099841
80	8530	115	1.6967292456888
80	8648	116	1.7226056025131
80	8745	117	1.5593772370834
80	8830	118	1.3791552372975
80	8915	119	1.1780758245766
80	9012	120	-0.68107553773562
80	9097	121	-1.2211204146287
80	9194	122	-1.6283086721177
80	9291	123	-0.19487227482238
80	9388	124	0.11234767637073
80	9485	125	-0.41333604680935
80	9582	126	1.1554475082233
80	9679	127	-1.3450606206566
79	4689	89	2.1157240657136
79	4865	90	4.0022628067061
79	5041	91	6.4985323160654
79	5207	92	8.2405778873479
79	5406	93	10.788630913477
79	5572	94	12.890906266915
79	5729	95	13.632279805584
79	5886	96	14.009467002215
79	6031	97	14.403691733885
79	6200	98	13.315828570491
79	6378	99	13.73624465305
79	6556	100	10.873997176399
79	6722	101	6.9391827087684
79	6886	102	2.4391827087684
79	7052	103	0.67822444647354
79	7194	104	0.16343326527058
79	7339	105	0.060177762902097
79	7484	106	0.010450994512267
79	7608	107	0.00018011291156296
79	7744	108	0
79	7869	109	0
79	7964	110	0
79	8058	111	0
79	8176	112	1.356090676575
79	8294	113	3.8344737323234
79	8412	114	5.8614209423075
79	8530	115	7.5581501879962
79	8648	116	9.2807557905093
79	8745	117	10.840133027593
79	8830	118	12.21928826489
79	8915	119	13.397364089467
79	9012	120	12.716288551731
79	9097	121	11.495168137102
79	9194	122	9.8668594649847
79	9291	123	9.6719871901623
79	9388	124	9.7843348665331
79	9485	125	9.3709988197237
79	9582	126	10.526446327947
79	9679	127	9.1813857072905
76	4520	88	1013.4
76	4689	89	1013.4
76	4865	90	1013.4
76	5041	91	1013.4
76	5207	92	1013.4
76	5406	93	1013.4
76	5572	94	1013.4
76	5729	95	1013.4
76	5886	96	1013.4
76	6031	97	1013.4
76	6200	98	1013.4
76	6378	99	1013.4
76	6556	100	1013.4
76	6722	101	1013.4
76	6886	102	1013.4
76	7052	103	1013.4
76	7194	104	1013.4
76	7339	105	1013.4
76	7484	106	1013.4
76	7608	107	1013.4
76	7744	108	1013.4
76	7869	109	1013.4
76	7964	110	1013.4
76	8058	111	1013.4
76	8176	112	1013.4
76	8294	113	1013.4
76	8412	114	1013.4
76	8530	115	1013.4
76	8648	116	1013.4
76	8745	117	1013.4
76	8830	118	1013.4
76	8915	119	1013.4
76	9012	120	1013.4
76	9097	121	1013.4
76	9194	122	1013.4
76	9291	123	1013.4
76	9388	124	1013.4
76	9485	125	1013.4
76	9582	126	1013.4
76	9679	127	1013.4
75	4520	88	2774.4273071429
75	4689	89	2753.4473339378
75	4865	90	2713.7600383188
75	5041	91	2649.31919933
75	5207	92	2567.603863161
75	5406	93	2460.6214871734
75	5572	94	2332.7924982936
75	5729	95	2197.6118905387
75	5886	96	2058.6910137161
75	6031	97	1915.8609199775
75	6200	98	1783.8183104806
75	6378	99	1647.60676502
75	6556	100	1539.7778788766
75	6722	101	1470.9674561687
75	6886	102	1446.7799977466
75	7052	103	1440.0545788015
75	7194	104	1438.4339395217
75	7339	105	1437.8372039295
75	7484	106	1437.7335696284
75	7608	107	1437.7317835902
75	7744	108	1437.7317835902
75	7869	109	1437.7317835902
75	7964	110	1437.7317835902
75	8058	111	1437.7317835902
75	8176	112	1435.474198017
75	8294	113	1431.6374753264
75	8412	114	1425.7726166006
75	8530	115	1405.1344430636
75	8648	116	1312.6802167897
75	8745	117	1204.691585864
75	8830	118	1082.9639089755
75	8915	119	949.5003248708
75	9012	120	822.82156662478
75	9097	121	708.3075227264
75	9194	122	610.0145735119
75	9291	123	513.66292797973
75	9388	124	416.19208292039
75	9485	125	322.83886203536
75	9582	126	217.97515560538
75	9679	127	126.51084700262
vector 102 Scenario.node[20].veinsmobility speed ETV
vector 103 Scenario.node[20].veinsmobility acceleration ETV
vector 104 Scenario.node[20].veinsmobility co2emission ETV
94	6556	100	2.3383470485483
94	6722	101	3.9097843404998
94	6886	102	4.5056894769476
94	7052	103	7.1085163025317
94	7194	104	8.1422486863561
94	7339	105	8.3409590595573
94	7484	106	7.3066196739092
94	7608	107	3.6479802557206
94	7744	108	0.973
94	7869	109	0.973
94	7964	110	0.973
94	8058	111	0.973
94	8176	112	0.973
94	8294	113	0.973
94	8412	114	2.6411846319413
94	8530	115	4.0175385232971
94	8648	116	6.2055727681599
94	8745	117	7.3096215654552
94	8830	118	5.0567304967087
94	8915	119	3.0473016889318
94	9012	120	8.7958244051016
94	9097	121	0.973
94	9194	122	1.1440928235961
94	9291	123	0.973
94	9388	124	0.973
94	9485	125	3.0573324071748
94	9582	126	0.973
94	9679	127	8.1863887082138
94	9752	128	0.973
94	9792	129	5.2499037573349
93	6556	100	1.4584743642248
93	6722	101	2.0572381107602
93	6886	102	1.8127491690917
93	7052	103	2.4250681012869
93	7194	104	2.2591196405469
93	7339	105	1.9416698259301
93	7484	106	1.4288652946313
93	7608	107	0.39362704583909
93	7744	108	-0.73480483666062
93	7869	109	-1.1229122183824
93	7964	110	-3.2877176294569
93	8058	111	-4.5
93	8176	112	-4.5
93	8294	113	-0.41741734394182
93	8412	114	2.0269940294093
93	8530	115	2.1862453546142
93	8648	116	2.5611609236337
93	8745	117	2.3486588334118
93	8830	118	1.2189886798033
93	8915	119	0.44091451774188
93	9012	120	2.0617864942368
93	9097	121	-1.347052987826
93	9194	122	-0.24434103093915
93	9291	123	-1.7203556654283
93	9388	124	-1.3241518123468
93	9485	125	0.60301301927636
93	9582	126	-0.65087858956863
93	9679	127	2.343180569135
93	9752	128	-2.1118639737356
93	9792	129	1.3785294089001
92	6378	99	1.6077872390626
92	6556	100	3.0662616032874
92	6722	101	5.1234997140476
92	6886	102	6.9362488831393
92	7052	103	9.3613169844262
92	7194	104	11.620436624973
92	7339	105	13.562106450903
92	7484	106	14.990971745535
92	7608	107	15.384598791374
92	7744	108	14.649793954713
92	7869	109	13.526881736331
92	7964	110	10.239164106874
92	8058	111	5.7391641068737
92	8176	112	1.2391641068737
92	8294	113	0.82174676293191
92	8412	114	2.8487407923412
92	8530	115	5.0349861469554
92	8648	116	7.5961470705891
92	8745	117	9.9448059040009
92	8830	118	11.163794583804
92	8915	119	11.604709101546
92	9012	120	13.666495595783
92	9097	121	12.319442607957
92	9194	122	12.075101577018
92	9291	123	10.354745911589
92	9388	124	9.0305940992425
92	9485	125	9.6336071185189
92	9582	126	8.9827285289502
92	9679	127	11.325909098085
92	9752	128	9.2140451243496
92	9792	129	10.59257453325
91	6200	98	1013.4
91	6378	99	1013.4
91	6556	100	1013.4
91	6722	101	1013.4
91	6886	102	1013.4
91	7052	103	1013.4
91	7194	104	1013.4
91	7339	105	1013.4
91	7484	106	1013.4
91	7608	107	1013.4
91	7744	108	1013.4
91	7869	109	1013.4
91	7964	110	1013.4
91	8058	111	1013.4
91	8176	112	1013.4
91	8294	113	1013.4
91	8412	114	1013.4
91	8530	115	1013.4
91	8648	116	1013.4
91	8745	117	1013.4
91	8830	118	1013.4
91	8915	119	1013.4
91	9012	120	1013.4
91	9097	121	1013.4
91	9194	122	1013.4
91	9291	123	1013.4
91	9388	124	1013.4
91	9485	125	1013.4
91	9582	126	1013.4
91	9679	127	1013.4
91	9752	128	1013.4
91	9792	129	1013.4
90	6200	98	2774.4273071429
90	6378	99	2758.4841443545
90	6556	100	2728.0784372402
90	6722	101	2677.2727161829
90	6886	102	2608.4913859187
90	7052	103	2515.6625607046
90	7194	104	2400.4318210378
90	7339	105	2265.947067305
90	7484	106	2117.2933791252
90	7608	107	1964.7364008102
90	7744	108	1819.4659047137
90	7869	109	1685.3304467987
90	7964	110	1583.7967014084
90	8058	111	1526.8859203037
90	8176	112	1514.5981034848
90	8294	113	1506.449486495
90	8412	114	1478.2007623537
90	8530	115	1435.8766300325
90	8648	116	1428.2760277437
90	8745	117	1406.2829339986
90	8830	118	1295.0700097686
90	8915	119	1179.4647266068
90	9012	120	1043.3200736599
90	9097	121	920.59466635961
90	9194	122	800.30336695661
90	9291	123	697.15012781007
90	9388	124	607.18799443585
90	9485	125	511.21868843596
90	9582	126	421.73338845402
90	9679	127	308.9054910124
90	9752	128	217.11583162971
90	9792	129	111.59336074195
99	7052	103	2.749618194902
99	7194	104	4.4012954587354
99	7339	105	6.598378190273
99	7484	106	7.1025711633613
99	7608	107	7.3783703283437
99	7744	108	2.9515414096343
99	7869	109	2.2434512289537
99	7964	110	1.5224082023307
99	8058	111	2.0929495491942
99	8176	112	1.3140231516978
99	8294	113	0.973
99	8412	114	0.973
99	8530	115	0.973
99	8648	116	3.1275165796652
99	8745	117	2.2256452233471
99	8830	118	4.7888490917852
99	8915	119	6.1750859096796
99	9012	120	7.3176887074662
99	9097	121	5.2910917756416
99	9194	122	0.973
99	9291	123	3.0122782124919
99	9388	124	1.9709309101875
99	9485	125	0.973
99	9582	126	2.048107285739
99	9679	127	1.2552572372202
99	9752	128	6.174889554125
99	9792	129	0.973
99	9832	130	2.8835130911826
99	9851	131	5.9911512975023
98	7052	103	1.8228123541223
98	7194	104	2.2319072440267
98	7339	105	2.5669802818913
98	7484	106	2.1678226776421
98	7608	107	1.8751483520959
98	7744	108	0.3485409013747
98	7869	109	0.11003549324814
98	7964	110	-0.123826908716
98	8058	111	0.062844086950646
98	8176	112	-0.19089956888929
98	8294	113	-2.822321231926
98	8412	114	-4.324605626242
98	8530	115	-1.8534042838061
98	8648	116	1.4982521693834
98	8745	117	0.62554848898742
98	8830	118	1.8484226347879
98	8915	119	2.0061168105574
98	9012	120	2.0108760105912
98	9097	121	1.1255772713393
98	9194	122	-0.50469224348199
98	9291	123	0.37792759176809
98	9388	124	0.028317075921223
98	9485	125	-2.042910019174
98	9582	126	0.12805075298996
98	9679	127	-0.18262656059794
98	9752	128	1.5205496928792
98	9792	129	-1.7544760752368
98	9832	130	0.45513486822422
98	9851	131	1.4354972891643
97	6886	102	1.5330851328559
97	7052	103	3.3558974869782
97	7194	104	5.5878047310049
97	7339	105	8.1547850128962
97	7484	106	10.322607690538
97	7608	107	12.197756042634
97	7744	108	12.546296944009
97	7869	109	12.656332437257
97	7964	110	12.532505528541
97	8058	111	12.595349615492
97	8176	112	12.404450046602
97	8294	113	9.5821288146763
97	8412	114	5.2575231884343
97	8530	115	3.4041189046282
97	8648	116	4.9023710740116
97	8745	117	5.5279195629991
97	8830	118	7.3763421977869
97	8915	119	9.3824590083444
97	9012	120	11.393335018936
97	9097	121	12.518912290275
97	9194	122	12.014220046793
97	9291	123	12.392147638561
97	9388	124	12.420464714482
97	9485	125	10.377554695308
97	9582	126	10.505605448298
97	9679	127	10.3229788877
97	9752	128	11.843528580579
97	9792	129	10.089052505342
97	9832	130	10.544187373567
97	9851	131	11.979684662731
96	6722	101	1013.4
96	6886	102	1013.4
96	7052	103	1013.4
96	7194	104	1013.4
96	7339	105	1013.4
96	7484	106	1013.4
96	7608	107	1013.4
96	7744	108	1013.4
96	7869	109	1013.4
96	7964	110	1013.4
96	8058	111	1013.4
96	8176	112	1013.4
96	8294	113	1013.4
96	8412	114	1013.4
96	8530	115	1013.4
96	8648	116	1013.4
96	8745	117	1013.4
96	8830	118	1013.4
96	8915	119	1013.4
96	9012	120	1013.4
96	9097	121	1013.4
96	9194	122	1013.4
96	9291	123	1013.4
96	9388	124	1013.4
96	9485	125	1013.4
96	9582	126	1013.4
96	9679	127	1013.4
96	9752	128	1013.4
96	9792	129	1013.4
96	9832	130	1013.4
96	9851	131	1013.4
95	6722	101	2774.4273071429
95	6886	102	2759.2249064472
95	7052	103	2725.9471078454
95	7194	104	2670.5372387461
95	7339	105	2589.6726431043
95	7484	106	2487.3114532575
95	7608	107	2366.3558905339
95	7744	108	2241.9441215449
95	7869	109	2116.4412170258
95	7964	110	1992.1662066679
95	8058	111	1867.2680208772
95	8176	112	1744.2628361187
95	8294	113	1649.244393479
95	8412	114	1597.1096669304
95	8530	115	1563.353694418
95	8648	116	1514.7407323401
95	8745	117	1459.9246973992
95	8830	118	1431.6897711755
95	8915	119	1422.3018092587
95	9012	120	1332.3729381479
95	9097	121	1207.6604281202
95	9194	122	1087.9756261726
95	9291	123	964.52593655067
95	9388	124	840.79415424105
95	9485	125	737.41369562029
95	9582	126	632.75760454474
95	9679	127	529.9208262211
95	9752	128	411.9364404677
95	9792	129	311.43002005609
95	9832	130	206.38957859686
95	9851	131	87.04881567849
vector 105 Scenario.node[21].veinsmobility posx ETV
vector 106 Scenario.node[21].veinsmobility posy ETV
vector 107 Scenario.node[21].veinsmobility speed ETV
vector 108 Scenario.node[21].veinsmobility acceleration ETV
vector 109 Scenario.node[21].veinsmobility co2emission ETV
vector 110 Scenario.node[22].veinsmobility posx ETV
vector 111 Scenario.node[22].veinsmobility posy ETV
vector 112 Scenario.node[22].veinsmobility speed ETV
vector 113 Scenario.node[22].veinsmobility acceleration ETV
vector 114 Scenario.node[22].veinsmobility co2emission ETV
vector 115 Scenario.node[23].veinsmobility posx ETV
vector 116 Scenario.node[23].veinsmobility posy ETV
vector 117 Scenario.node[23].veinsmobility speed ETV
vector 118 Scenario.node[23].veinsmobility acceleration ETV
vector 119 Scenario.node[23].veinsmobility co2emission ETV
vector 120 Scenario.node[24].veinsmobility posx ETV
vector 121 Scenario.node[24].veinsmobility posy ETV
vector 122 Scenario.node[24].veinsmobility speed ETV
vector 123 Scenario.node[24].veinsmobility acceleration ETV
vector 124 Scenario.node[24].veinsmobility co2emission ETV
[...]
1072	135573	1074	12.809581568146
1072	135761	1075	12.002062326793
1072	136014	1076	11.95101408079
1073	132868	1052	2774.4273071429
1073	132935	1053	2749.7081772362
1073	133035	1054	2706.5610541954
1073	133127	1055	2645.1340182595
1073	133219	1056	2563.5903919371
1073	133319	1057	2459.0209534002
1073	133398	1058	2339.5853511916
1073	133477	1059	2198.0621468081
1073	133556	1060	2056.4495134962
1073	133659	1061	1918.316240329
1073	133774	1062	1779.4870294914
1073	133889	1063	1633.1573756262
1073	134013	1064	1530.8825308502
1073	134123	1065	1465.1464159753
1073	134233	1066	1444.0332653861
1073	134387	1067	1440.6124366372
1073	134529	1068	1438.3999957377
1073	134671	1069	1437.77799733
1073	134825	1070	1437.742978379
1073	135000	1071	1437.7361154098
1073	135154	1072	1437.7324076243
1073	135353	1073	1437.7324076243
1073	135573	1074	1437.7324076243
1073	135761	1075	1437.7324076243
1073	136014	1076	1437.7324076243
1074	132868	1052	1013.4
1074	132935	1053	1013.4
1074	133035	1054	1013.4
1074	133127	1055	1013.4
1074	133219	1056	1013.4
1074	133319	1057	1013.4
1074	133398	1058	1013.4
1074	133477	1059	1013.4
1074	133556	1060	1013.4
1074	133659	1061	1013.4
1074	133774	1062	1013.4
1074	133889	1063	1013.4
1074	134013	1064	1013.4
1074	134123	1065	1013.4
1074	134233	1066	1013.4
1074	134387	1067	1013.4
1074	134529	1068	1013.4
1074	134671	1069	1013.4
1074	134825	1070	1013.4
1074	135000	1071	1013.4
1074	135154	1072	1013.4
1074	135353	1073	1013.4
1074	135573	1074	1013.4
1074	135761	1075	1013.4
1074	136014	1076	1013.4
1075	132868	1052	2.0606823781738
1075	132935	1053	2.2045263586566
1075	133035	1054	1.726364605804
1075	133127	1055	1.3486722401576
1075	133219	1056	1.3471917525632
1075	133319	1057	1.8319051420387
1075	133398	1058	-0.78082633242011
1075	133477	1059	0.94582200061996
1075	133556	1060	-0.66496006716043
1075	133659	1061	0.63570774050895
1075	133774	1062	-0.74469213141128
1075	133889	1063	-1.59163311559
1075	134013	1064	-3.3784452217748
1075	134123	1065	1.6101872752653
1075	134233	1066	2.2549936615629
1075	134387	1067	1.6419049532013
1075	134529	1068	-0.37803729171865
1075	134671	1069	0.34715413942467
1075	134825	1070	-0.91456679638941
1075	135000	1071	1.2813761486905
1075	135154	1072	-1.0299844798399
1075	135353	1073	0.35531885991804
1075	135573	1074	0.62891385972034
1075	135761	1075	-0.80751924135257
1075	136014	1076	-0.051048246002757
1076	132868	1052	3.3682752781051
1076	132935	1053	4.806122222531
1076	133035	1054	4.9023050681998
1076	133127	1055	4.7003400218762
1076	133219	1056	5.2374032298213
1076	133319	1057	7.4607622961334
1076	133398	1058	0.973
1076	133477	1059	4.824843727545
1076	133556	1060	0.973
1076	133659	1061	3.8642570802936
1076	133774	1062	0.973
1076	133889	1063	0.973
1076	134013	1064	0.973
1076	134123	1065	4.9311792086801
1076	134233	1066	7.6650411129853
1076	134387	1067	6.8491234390244
1076	134529	1068	0.973
1076	134671	1069	2.937219124278
1076	134825	1070	0.973
1076	135000	1071	5.8962738983807
1076	135154	1072	0.973
1076	135353	1073	2.9075982918061
1076	135573	1074	3.8636278907615
1076	135761	1075	0.973
1076	136014	1076	1.697171807177
1077	132935	1053	2378.1077071429
1077	133035	1054	2361.8826826872
1077	133127	1055	2328.83055537
1077	133219	1056	2281.4263933376
1077	133319	1057	2224.0077370375
1077	133398	1058	2151.393663443
1077	133477	1059	2063.8837901775
1077	133556	1060	1973.1592865731
1077	133659	1061	1883.3813325204
1077	133774	1062	1793.6403926104
1077	133889	1063	1705.1036824588
1077	134013	1064	1614.8385061715
1077	134123	1065	1543.0041124358
1077	134233	1066	1476.2671816744
1077	134387	1067	1441.0852151988
1077	134529	1068	1428.1933868117
1077	134671	1069	1420.7314067583
1077	134825	1070	1325.8906091958
1077	135000	1071	1198.1262757793
1077	135154	1072	1070.3422954332
1077	135353	1073	944.30796124945
1077	135573	1074	812.71806503152
1077	135761	1075	684.70049684676
1077	136014	1076	552.90753497381
1078	132935	1053	59.632292857143
1078	133035	1054	75.857317312799
1078	133127	1055	108.90944463001
1078	133219	1056	156.31360666235
1078	133319	1057	213.73226296246
1078	133398	1058	286.34633655696
1078	133477	1059	373.85620982247
1078	133556	1060	464.58071342694
1078	133659	1061	554.35866747959
1078	133774	1062	644.09960738962
1078	133889	1063	732.63631754117
1078	134013	1064	822.90149382851
1078	134123	1065	894.73588756419
1078	134233	1066	961.47281832557
1078	134387	1067	996.65478480122
1078	134529	1068	1009.1885952347
1078	134671	1069	1013.1944311021
1078	134825	1070	1013.4
1078	135000	1071	1013.4
1078	135154	1072	1013.4
1078	135353	1073	1013.4
1078	135573	1074	1013.4
1078	135761	1075	1013.4
1078	136014	1076	1013.4
1079	132935	1053	2.4927990858676
1079	133035	1054	4.3511688833591
1079	133127	1055	6.194605538575
1079	133219	1056	8.2232618187554
1079	133319	1057	10.545298389485
1079	133398	1058	12.044475721009
1079	133477	1059	14.271898559853
1079	133556	1060	14.280917014462
1079	133659	1061	13.930041161599
1079	133774	1062	14.00022295178
1079	133889	1063	14.756604652643
1079	134013	1064	10.313900227355
1079	134123	1065	6.6291543305613
1079	134233	1066	2.1291543305613
1079	134387	1067	0.34497325797357
1079	134529	1068	0.22311346203473
1079	134671	1069	0.062725389922522
1079	134825	1070	0.0035314838940729
1079	135000	1071	0.00069209568856691
1079	135154	1072	0.00037391139662939
1079	135353	1073	0
1079	135573	1074	0
1079	135761	1075	0
1079	136014	1076	0
1080	133035	1054	1.8583697974915
1080	133127	1055	1.8434366552159
1080	133219	1056	2.0286562801804
1080	133319	1057	2.3220365707297
1080	133398	1058	1.499177331524
1080	133477	1059	2.2274228388444
1080	133556	1060	0.0090184546082455
1080	133659	1061	-0.35087585286237
1080	133774	1062	0.070181790180504
1080	133889	1063	0.75638170086313
1080	134013	1064	-4.4427044252877
1080	134123	1065	-3.6847458967939
1080	134233	1066	-4.5
1080	134387	1067	-1.7841810725877
1080	134529	1068	-0.12185979593885
1080	134671	1069	-0.16038807211221
1080	134825	1070	-0.05919390602845
1080	135000	1071	-0.002839388205506
1080	135154	1072	-0.00031818429193752
1080	135353	1073	-0.00037391139662939
1080	135573	1074	0
1080	135761	1075	0
1080	136014	1076	0
1081	133035	1054	3.2762559711702
1081	133127	1055	4.1828532893418
1081	133219	1056	5.5784630030148
1081	133319	1057	7.6282983469436
1081	133398	1058	6.2041277206512
1081	133477	1059	9.7283041522471
1081	133556	1060	2.099005206431
1081	133659	1061	0.973
1081	133774	1062	2.2756676436091
1081	133889	1063	4.8086569674564
1081	134013	1064	0.973
1081	134123	1065	0.973
1081	134233	1066	0.973
1081	134387	1067	0.973
1081	134529	1068	0.973
1081	134671	1069	0.973
1081	134825	1070	1.1101199795866
1081	135000	1071	1.1100329131001
1081	135154	1072	1.1100180088133
1081	135353	1073	0.973
1081	135573	1074	0.973
1081	135761	1075	0.973
1081	136014	1076	0.973
1082	133035	1054	2.3138232510537
1082	133127	1055	4.7135078836
1082	133219	1056	6.7602272407617
1082	133319	1057	8.1883773028851
1082	133398	1058	10.355370020913
1082	133477	1059	12.479634777247
1082	133556	1060	12.93806776403
1082	133659	1061	12.80308193598
1082	133774	1062	12.797803411805
1082	133889	1063	12.626070246017
1082	134013	1064	12.872563873474
1082	134123	1065	10.24418119709
1082	134233	1066	9.5172406378588
1082	134387	1067	5.0172406378588
1082	134529	1068	6.6367100891344
1082	134671	1069	8.5750504398871
1082	134825	1070	10.494827971087
1082	135000	1071	12.825260942235
1082	135154	1072	12.827233143649
1082	135353	1073	12.651599866441
1082	135573	1074	13.20927923488
1082	135761	1075	12.850681197606
1082	136014	1076	13.229663405833
1083	133127	1055	2.3996846325463
1083	133219	1056	2.0467193571618
1083	133319	1057	1.4281500621233
1083	133398	1058	2.1669927180279
1083	133477	1059	2.124264756334
1083	133556	1060	0.4584329867832
1083	133659	1061	-0.13498582805041
1083	133774	1062	-0.005278524174356
1083	133889	1063	-0.17173316578846
1083	134013	1064	0.24649362745695
1083	134123	1065	-2.6283826763837
1083	134233	1066	-0.72694055923139
1083	134387	1067	-4.5
1083	134529	1068	1.6194694512757
1083	134671	1069	1.9383403507527
1083	134825	1070	1.9197775312001
1083	135000	1071	2.3304329711478
1083	135154	1072	0.0019722014143895
1083	135353	1073	-0.17563327720854
1083	135573	1074	0.55767936843913
1083	135761	1075	-0.35859803727362
1083	136014	1076	0.37898220822681
1084	133127	1055	4.0729883217347
1084	133219	1056	4.7991989300258
1084	133319	1057	4.3740356056108
1084	133398	1058	7.1201674250377
1084	133477	1059	8.2804862978764
1084	133556	1060	3.363630049889
1084	133659	1061	1.5049886551991
1084	133774	1062	1.9047184711795
1084	133889	1063	1.3824596237408
1084	134013	1064	2.6927127845189
1084	134123	1065	0.973
1084	134233	1066	0.973
1084	134387	1067	0.973
1084	134529	1068	4.0474148579133
1084	134671	1069	5.5876579373545
1084	134825	1070	6.5786567710961
1084	135000	1071	9.1266794481171
1084	135154	1072	1.9298542533345
1084	135353	1073	1.3718731749229
1084	135573	1074	3.7354692343945
1084	135761	1075	0.973
1084	136014	1076	3.1704305464361
1085	133556	1060	2378.1077071429
1085	133659	1061	2363.1618295645
1085	133774	1062	2335.9464751082
1085	133889	1063	2290.5361300524
1085	134013	1064	2230.5302707521
1085	134123	1065	2159.2101943768
1085	134233	1066	2076.8569732204
1085	134387	1067	1991.0916044118
1085	134529	1068	1904.3587613957
1085	134671	1069	1821.1184279591
1085	134825	1070	1736.8984851946
1085	135000	1071	1653.5641088263
1085	135154	1072	1563.7481296513
1085	135353	1073	1489.7162821219
1085	135573	1074	1447.2393988782
1085	135761	1075	1428.171403881
1085	136014	1076	1420.3365971183
1086	133556	1060	59.632292857143
1086	133659	1061	74.578170435499
1086	133774	1062	101.79352489177
1086	133889	1063	147.20386994761
1086	134013	1064	207.20972924792
1086	134123	1065	278.52980562316
1086	134233	1066	360.88302677959
1086	134387	1067	446.64839558816
1086	134529	1068	533.3812386043
1086	134671	1069	616.62157204094
1086	134825	1070	700.84151480539
1086	135000	1071	784.17589117369
1086	135154	1072	873.9918703487
1086	135353	1073	948.02371787813
1086	135573	1074	990.50060112184
1086	135761	1075	1009.2047513645
1086	136014	1076	1013.2708962103
1087	133659	1061	2.1314062818652
1087	133774	1062	3.8811355938902
1087	133889	1063	6.4758923794376
1087	134013	1064	8.5573339398019
1087	134123	1065	10.170835269615
1087	134233	1066	11.744253355777
1087	134387	1067	12.230853951983
1087	134529	1068	12.36882380974
1087	134671	1069	11.870762935215
1087	134825	1070	12.010463361912
1087	135000	1071	11.884174238382
1087	135154	1072	12.808504634262
1087	135353	1073	10.557556359943
1087	135573	1074	6.0575563599432
1087	135761	1075	7.5416270600708
1087	136014	1076	8.9498872165179
1088	133774	1062	1.749729312025
1088	133889	1063	2.5947567855474
1088	134013	1064	2.0814415603643
1088	134123	1065	1.6135013298132
1088	134233	1066	1.5734180861618
1088	134387	1067	0.48660059620572
1088	134529	1068	0.13796985775698
1088	134671	1069	-0.49806087452453
1088	134825	1070	0.1397004266968
1088	135000	1071	-0.12628912352957
1088	135154	1072	0.92433039587922
1088	135353	1073	-2.2509482743183
1088	135573	1074	-4.5
1088	135761	1075	1.4840707001276
1088	136014	1076	1.4082601564471
1089	133774	1062	2.9392424174178
1089	133889	1063	5.49709649951
1089	134013	1064	5.8732870467973
1089	134123	1065	5.6528039388285
1089	134233	1066	6.2795307788078
1089	134387	1067	3.3033596545731
1089	134529	1068	2.2927511829234
1089	134671	1069	0.973
1089	134825	1070	2.2537993022936
1089	135000	1071	1.4766424952705
1089	135154	1072	4.7752701635019
1089	135353	1073	0.973
1089	135573	1074	0.973
1089	135761	1075	4.2107791273345
1089	136014	1076	4.6454765465766
1090	133889	1063	2774.4273071429
1090	134013	1064	2760.5389109977
1090	134123	1065	2733.3460293686
1090	134233	1066	2682.6632530515
1090	134387	1067	2608.6459985414
1090	134529	1068	2514.9755848212
1090	134671	1069	2406.0654450732
1090	134825	1070	2278.6962725487
1090	135000	1071	2135.9183792026
1090	135154	1072	1999.0400789483
1090	135353	1073	1865.2941281796
1090	135573	1074	1721.128229433
1090	135761	1075	1611.8133840986
1090	136014	1076	1543.4682436505
1091	133889	1063	1013.4
1091	134013	1064	1013.4
1091	134123	1065	1013.4
1091	134233	1066	1013.4
1091	134387	1067	1013.4
1091	134529	1068	1013.4
1091	134671	1069	1013.4
1091	134825	1070	1013.4
1091	135000	1071	1013.4
1091	135154	1072	1013.4
1091	135353	1073	1013.4
1091	135573	1074	1013.4
1091	135761	1075	1013.4
1091	136014	1076	1013.4
1092	134013	1064	1.4005744274007
1092	134123	1065	2.7422644212376
1092	134233	1066	5.1111013595248
1092	134387	1067	7.4642653312534
1092	134529	1068	9.4461869238876
1092	134671	1069	10.9830361275
1092	134825	1070	12.844536115765
1092	135000	1071	14.39842758862
1092	135154	1072	13.803483497875
1092	135353	1073	13.487601912895
1092	135573	1074	14.538400905102
1092	135761	1075	11.023848636657
1092	136014	1076	6.8922613488266
1093	134123	1065	1.3416899938369
1093	134233	1066	2.3688369382871
1093	134387	1067	2.3531639717286
1093	134529	1068	1.9819215926342
1093	134671	1069	1.5368492036127
1093	134825	1070	1.8614999882644
1093	135000	1071	1.5538914728558
1093	135154	1072	-0.59494409074541
1093	135353	1073	-0.31588158498052
1093	135573	1074	1.0507989922073
1093	135761	1075	-3.5145522684451
1093	136014	1076	-4.1315872878302
1094	134123	1065	2.1308956256797
1094	134233	1066	4.2867690095854
1094	134387	1067	5.7415723850626
1094	134529	1068	6.1554551007157
1094	134671	1069	5.8301141188279
1094	134825	1070	7.6877172519706
1094	135000	1071	7.4723677709606
1094	135154	1072	0.973
1094	135353	1073	0.973
1094	135573	1074	5.7769463184916
1094	135761	1075	0.973
1094	136014	1076	0.973
1095	134233	1066	2774.4273071429
1095	134387	1067	2754.558575046
1095	134529	1068	2713.20095352
1095	134671	1069	2656.9159845434
1095	134825	1070	2585.758930619
1095	135000	1071	2491.1212551538
1095	135154	1072	2378.3321399605
1095	135353	1073	2247.2931665995
1095	135573	1074	2113.9464352261
1095	135761	1075	1990.6052774976
1095	136014	1076	1862.9771158408
1096	134233	1066	1013.4
1096	134387	1067	1013.4
1096	134529	1068	1013.4
1096	134671	1069	1013.4
1096	134825	1070	1013.4
1096	135000	1071	1013.4
1096	135154	1072	1013.4
1096	135353	1073	1013.4
1096	135573	1074	1013.4
1096	135761	1075	1013.4
1096	136014	1076	1013.4
1097	134233	1066	2378.1077071429
1097	134387	1067	2365.512504176
1097	134529	1068	2338.6492151804
1097	134671	1069	2296.4285936213
1097	134825	1070	2243.3758294238
1097	135000	1071	2175.7097822269
1097	135154	1072	2095.2059036981
1097	135353	1073	1997.6423051319
1097	135573	1074	1899.1809378351
1097	135761	1075	1801.382618096
1097	136014	1076	1710.2551641877
1098	134233	1066	59.632292857143
1098	134387	1067	72.227495824006
1098	134529	1068	99.090784819551
1098	134671	1069	141.31140637872
1098	134825	1070	194.36417057624
1098	135000	1071	262.0302177731
1098	135154	1072	342.53409630192
1098	135353	1073	440.09769486812
1098	135573	1074	538.55906216485
1098	135761	1075	636.35738190397
1098	136014	1076	727.48483581235
1099	134387	1067	2.0036610267141
1099	134529	1068	4.1707067167402
1099	134671	1069	5.6760541225567
1099	134825	1070	7.1758285847974
1099	135000	1071	9.5437303731467
1099	135154	1072	11.374211159979
1099	135353	1073	13.214616948094
1099	135573	1074	13.44734265833
1099	135761	1075	12.438331219422
1099	136014	1076	12.870653858369
1100	134387	1067	1.7961805577623
1100	134529	1068	3.8309281349648
1100	134671	1069	6.0210113152396
1100	134825	1070	7.5657648263266
1100	135000	1071	9.6497403587215
1100	135154	1072	11.480521736597
1100	135353	1073	13.913379510515
1100	135573	1074	14.04140878828
1100	135761	1075	13.946852699348
1100	136014	1076	12.995531824238
1101	134529	1068	2.1670456900261
1101	134671	1069	1.5053474058164
1101	134825	1070	1.4997744622407
1101	135000	1071	2.3679017883493
1101	135154	1072	1.830480786832
1101	135353	1073	1.8404057881153
1101	135573	1074	0.23272571023553
1101	135761	1075	-1.0090114389081
1101	136014	1076	0.43232263894752
1102	134529	1068	3.496081844751
1102	134671	1069	3.4599145016137
1102	134825	1070	4.0839680967542
1102	135000	1071	7.0969582123504
1102	135154	1072	6.8123148664839
1102	135353	1073	7.8218302608148
1102	135573	1074	2.7375569435598
1102	135761	1075	0.973
1102	136014	1076	3.2688290346333
1103	134529	1068	2.0347475772025
1103	134671	1069	2.1900831802748
1103	134825	1070	1.544753511087
1103	135000	1071	2.0839755323948
1103	135154	1072	1.8307813778752
1103	135353	1073	2.4328577739187
1103	135573	1074	0.12802927776456
1103	135761	1075	-0.09455608893186
1103	136014	1076	-0.9513208751101
1104	134529	1068	3.1785859566746
1104	134671	1069	4.598568049019
1104	134825	1070	4.3316043236778
1104	135000	1071	6.5049786987623
1104	135154	1072	6.8690208243973
1104	135353	1073	10.187667920619
1104	135573	1074	2.4763495946417
1104	135761	1075	1.715586747358
1104	136014	1076	0.973
1105	134671	1069	2774.4273071429
1105	134825	1070	2749.0562041932
1105	135000	1071	2710.0180860056
1105	135154	1072	2645.5883869415
1105	135353	1073	2555.5517114173
1105	135573	1074	2440.9127734688
1105	135761	1075	2304.5314643257
1105	136014	1076	2170.2432121087
1106	134671	1069	1013.4
1106	134825	1070	1013.4
1106	135000	1071	1013.4
1106	135154	1072	1013.4
1106	135353	1073	1013.4
1106	135573	1074	1013.4
1106	135761	1075	1013.4
1106	136014	1076	1013.4
1107	134825	1070	2378.1077071429
1107	135000	1071	2365.3558054958
1107	135154	1072	2343.0797870671
1107	135353	1073	2310.6172242068
1107	135573	1074	2261.8258803341
1107	135761	1075	2200.4923247867
1107	136014	1076	2124.3622262109
1108	134825	1070	59.632292857143
1108	135000	1071	72.384194504207
1108	135154	1072	94.660212932947
1108	135353	1073	127.12277579316
1108	135573	1074	175.91411966588
1108	135761	1075	237.2476752133
1108	136014	1076	313.37777378909
1109	134825	1070	2.5585472659906
1109	135000	1071	3.9367965498474
1109	135154	1072	6.4974089110736
1109	135353	1073	9.079742826242
1109	135573	1074	11.560756418272
1109	135761	1075	13.753364460822
1109	136014	1076	13.542290268022
1110	135000	1071	1.3782492838567
1110	135154	1072	2.5606123612262
1110	135353	1073	2.5823339151684
1110	135573	1074	2.4810135920299
1110	135761	1075	2.1926080425503
1110	136014	1076	-0.21107419280054
1111	135000	1071	2.6131862361261
1111	135154	1072	5.4583745120091
1111	135353	1073	7.2678665870099
1111	135573	1074	8.7228831146931
1111	135761	1075	9.2813203764795
1111	136014	1076	1.303828326114
1112	135000	1071	1.818527091085
1112	135154	1072	3.1767452506581
1112	135353	1073	4.6294310951605
1112	135573	1074	6.9580508930143
1112	135761	1075	8.7466744523728
1112	136014	1076	10.856784387049
1113	135154	1072	2774.4273071429
1113	135353	1073	2752.6123353532
1113	135573	1074	2705.5614849608
1113	135761	1075	2636.3941773268
1113	136014	1076	2554.1121898461
1114	135154	1072	1013.4
1114	135353	1073	1013.4
1114	135573	1074	1013.4
1114	135761	1075	1013.4
1114	136014	1076	1013.4
1115	135154	1072	1.3582181595732
1115	135353	1073	1.4526858445024
1115	135573	1074	2.3286197978538
1115	135761	1075	1.7886235593585
1115	136014	1076	2.1101099346764
1116	135154	1072	2.3060536004428
1116	135353	1073	2.9632405172824
1116	135573	1074	5.3816159522124
1116	135761	1075	5.3640820984808
1116	136014	1076	7.2730183692682
1117	135353	1073	2378.1077071429
1117	135573	1074	2367.7848190694
1117	135761	1075	2346.936826509
1117	136014	1076	2313.3584386864
1118	135353	1073	59.632292857143
1118	135573	1074	69.955180930645
1118	135761	1075	90.803173491002
1118	136014	1076	124.38156131361
1119	135353	1073	2.1999294449575
1119	135573	1074	4.7448400202673
1119	135761	1075	6.9751727464842
1119	136014	1076	8.2977218028856
1120	135573	1074	2.5449105753098
1120	135761	1075	2.2303327262169
1120	136014	1076	1.3225490564015
1121	135573	1074	4.2588809151021
1121	135761	1075	5.2270587443994
1121	136014	1076	4.2078283970635
1122	135573	1074	1.4721295803143
1122	135761	1075	2.9730969007649
1122	136014	1076	4.7885570027456
1123	135761	1075	2774.4273071429
1123	136014	1076	2758.0689297629
1124	135761	1075	1013.4
1124	136014	1076	1013.4
1125	135761	1075	1.5009673204506
1125	136014	1076	1.8154601019807
1126	135761	1075	2.3313175522466
1126	136014	1076	3.4462611012843
1127	136014	1076	1.6496595281875

