file 7435 1636196108                                            
version 2
run General-0-20211106-10:54:10-4067
attr configname General
attr datetime 20211106-10:54:10
attr experiment General
attr inifile omnetpp.ini
attr iterationvars ""
attr iterationvarsf ""
attr measurement ""
attr network org.car2x.veins.nodes.Scenario
attr processid 4067
attr repetition 0
attr replication #0
attr resultdir results
attr runnumber 0
attr seedset 0
param *.playgroundSizeX 3000m
param *.playgroundSizeY 2000m
param *.playgroundSizeZ 50m
param *.manager.updateInterval 1s
param *.manager.host "\"localhost\""
param *.manager.port 9999
param *.manager.autoShutdown true
param *.manager.launchConfig "xmldoc(\"veins.launchd.xml\")"
param *.annotations.draw true
param *.connectionManager.sendDirect true
param *.connectionManager.maxInterfDist 500m
param *.connectionManager.drawMaxIntfDist false
param *.**.nic.mac1609_4.useServiceChannel false
param *.**.nic.mac1609_4.txPower 20mW
param *.**.nic.mac1609_4.bitrate 6Mbps
param *.**.nic.phy80211p.minPowerLevel -110dBm
param *.**.nic.phy80211p.useNoiseFloor true
param *.**.nic.phy80211p.noiseFloor -98dBm
param *.**.nic.phy80211p.decider "xmldoc(\"config.xml\")"
param *.**.nic.phy80211p.analogueModels "xmldoc(\"config.xml\")"
param *.**.nic.phy80211p.usePropagationDelay true
param *.**.nic.phy80211p.antenna "xmldoc(\"antenna.xml\", \"/root/Antenna[@id='monopole']\")"
param *.node[*].nic.phy80211p.antennaOffsetY "0 m"
param *.node[*].nic.phy80211p.antennaOffsetZ "0 m"
param *.node[*].applType "\"InteractingVehicle\""
param *.node[*].appl.headerLength "88 bit"
param *.node[*].appl.dataLengthBits "512 bit"
param *.node[*].appl.sendBeacons false
param *.node[*].appl.dataOnSch false
param *.node[*].appl.beaconInterval 1s
param *.node[*].veinsmobility.x 0
param *.node[*].veinsmobility.y 0
param *.node[*].veinsmobility.z 0
param *.obstacles.obstacles "xmldoc(\"config.xml\", \"//AnalogueModel[@type='SimpleObstacleShadowing']/obstacles\")"

vector 0 Scenario.node[0].veinsmobility posx ETV
vector 1 Scenario.node[0].veinsmobility posy ETV
vector 2 Scenario.node[1].veinsmobility posx ETV
vector 3 Scenario.node[1].veinsmobility posy ETV
0	2118 22 2 2 1 1 1 2774.4273071429 2774.4273071429 2774.4273071429 7697446.88262
1	2140 13 2 2 1 1 1 1013.4 1013.4 1013.4 1026979.56
2	2153 22 2 2 1 1 1 2378.1077071429 2378.1077071429 2378.1077071429 5655396.2667723
3	2175 22 2 2 1 1 1 59.632292857143 59.632292857143 59.632292857143 3556.0103514
vector 4 Scenario.node[0].veinsmobility speed ETV
vector 5 Scenario.node[1].veinsmobility speed ETV
0	2297 22 3 3 2 2 1 2748.7788840879 2748.7788840879 2748.7788840879 7555785.3536075
1	2319 13 3 3 2 2 1 1013.4 1013.4 1013.4 1026979.56
2	2332 22 3 3 2 2 1 2366.9072153225 2366.9072153225 2366.9072153225 5602249.7659456
3	2354 22 3 3 2 2 1 70.832784677533 70.832784677533 70.832784677533 5017.2833851738
4	2376 22 3 3 2 2 1 2.5865135943983 2.5865135943983 2.5865135943983 6.6900525740071
5	2398 22 3 3 2 2 1 1.5972831639228 1.5972831639228 1.5972831639228 2.5513135057514
vector 6 Scenario.node[0].veinsmobility acceleration ETV
vector 7 Scenario.node[0].veinsmobility co2emission ETV
vector 8 Scenario.node[1].veinsmobility acceleration ETV
vector 9 Scenario.node[1].veinsmobility co2emission ETV
0	2646 22 4 4 3 3 1 2702.0465996144 2702.0465996144 2702.0465996144 7301055.826488
1	2668 13 4 4 3 3 1 1013.4 1013.4 1013.4 1026979.56
2	2681 22 4 4 3 3 1 2340.1984368018 2340.1984368018 2340.1984368018 5476528.7236096
3	2703 21 4 4 3 3 1 97.54156319819 97.54156319819 97.54156319819 9514.3565511465
4	2724 22 4 4 3 3 1 4.7127142603975 4.7127142603975 4.7127142603975 22.209675700154
5	2746 22 4 4 3 3 1 3.8088936578948 3.8088936578948 3.8088936578948 14.507670897151
6	2768 22 4 4 3 3 1 2.1262006659992 2.1262006659992 2.1262006659992 4.5207292720955
7	2790 22 4 4 3 3 1 3.7618728991628 3.7618728991628 3.7618728991628 14.151687709455
8	2812 21 4 4 3 3 1 2.211610493972 2.211610493972 2.211610493972 4.8912209770469
9	2833 21 4 4 3 3 1 3.328978911834 3.328978911834 3.328978911834 11.082100595436
0	2854 22 5 5 4 4 1 2636.0018628406 2636.0018628406 2636.0018628406 6948505.8208993
1	2876 13 5 5 4 4 1 1013.4 1013.4 1013.4 1026979.56
2	2889 22 5 5 4 4 1 2295.4470733637 2295.4470733637 2295.4470733637 5269077.2666139
3	2911 22 5 5 4 4 1 142.29292663632 142.29292663632 142.29292663632 20247.276970731
4	2933 22 5 5 4 4 1 6.6602772863582 6.6602772863582 6.6602772863582 44.359293531179
5	2955 22 5 5 4 4 1 6.3819161273073 6.3819161273073 6.3819161273073 40.728853455986
6	2977 22 5 5 4 4 1 1.9475630259607 1.9475630259607 1.9475630259607 3.7930017400892
7	2999 21 5 5 4 4 1 4.584670330842 4.584670330842 4.584670330842 21.019202042503
8	3020 22 5 5 4 4 1 2.5730224694125 2.5730224694125 2.5730224694125 6.6204446281018
9	3042 22 5 5 4 4 1 5.3992915792338 5.3992915792338 5.3992915792338 29.152349557585
0	3064 22 6 6 5 5 1 2550.6092976852 2550.6092976852 2550.6092976852 6505607.7894384
1	3086 13 6 6 5 5 1 1013.4 1013.4 1013.4 1026979.56
2	3099 22 6 6 5 5 1 2236.9725745118 2236.9725745118 2236.9725745118 5004046.2991178
3	3121 22 6 6 5 5 1 200.76742548824 200.76742548824 200.76742548824 40307.559137176
4	3143 22 6 6 5 5 1 8.6114078109851 8.6114078109851 8.6114078109851 74.156344487095
5	3165 22 6 6 5 5 1 8.3389492205111 8.3389492205111 8.3389492205111 69.538074102263
6	3187 22 6 6 5 5 1 1.9511305246269 1.9511305246269 1.9511305246269 3.806910324131
7	3209 22 6 6 5 5 1 5.6336839244473 5.6336839244473 5.6336839244473 31.738394560576
8	3231 22 6 6 5 5 1 1.9570330932038 1.9570330932038 1.9570330932038 3.8299785278948
9	3253 22 6 6 5 5 1 5.4988625648564 5.4988625648564 5.4988625648564 30.237489507179
0	3275 22 7 7 6 6 1 2445.8256279277 2445.8256279277 2445.8256279277 5982063.0022279
1	3297 13 7 7 6 6 1 1013.4 1013.4 1013.4 1026979.56
2	3310 22 7 7 6 6 1 2166.0425788535 2166.0425788535 2166.0425788535 4691740.4534063
3	3332 22 7 7 6 6 1 271.69742114651 271.69742114651 271.69742114651 73819.488657665
4	3354 22 7 7 6 6 1 10.566902523325 10.566902523325 10.566902523325 111.65942893745
5	3376 22 7 7 6 6 1 10.115206519398 10.115206519398 10.115206519398 102.31740293007
6	3398 22 7 7 6 6 1 1.9554947123397 1.9554947123397 1.9554947123397 3.8239595699886
7	3420 22 7 7 6 6 1 6.7086534962574 6.7086534962574 6.7086534962574 45.006031732846
8	3442 22 7 7 6 6 1 1.7762572988868 1.7762572988868 1.7762572988868 3.1550899918485
9	3464 22 7 7 6 6 1 6.0236636293657 6.0236636293657 6.0236636293657 36.284523519743
0	3486 22 8 8 7 7 1 2315.3570397226 2315.3570397226 2315.3570397226 5360878.2213932
1	3508 13 8 8 7 7 1 1013.4 1013.4 1013.4 1026979.56
2	3521 21 8 8 7 7 1 2080.919296506 2080.919296506 2080.919296506 4330225.1185712
3	3542 22 8 8 7 7 1 356.82070349396 356.82070349396 356.82070349396 127321.01444192
4	3564 22 8 8 7 7 1 13.157096493267 13.157096493267 13.157096493267 173.10918813315
5	3586 21 8 8 7 7 1 12.13928708951 12.13928708951 12.13928708951 147.36229104154
6	3607 22 8 8 7 7 1 2.5901939699426 2.5901939699426 2.5901939699426 6.7091048019272
7	3629 22 8 8 7 7 1 10.168244903929 10.168244903929 10.168244903929 103.39320442629
8	3651 21 8 8 7 7 1 2.024080570112 2.024080570112 2.024080570112 4.0969021543048
9	3672 22 8 8 7 7 1 7.7824390349409 7.7824390349409 7.7824390349409 60.566357332572
0	3694 22 9 9 8 8 1 2163.3262326893 2163.3262326893 2163.3262326893 4679980.3890419
1	3716 13 9 9 8 8 1 1013.4 1013.4 1013.4 1026979.56
2	3729 22 9 9 8 8 1 1985.6334043852 1985.6334043852 1985.6334043852 3942740.0166104
3	3751 22 9 9 8 8 1 452.10659561479 452.10659561479 452.10659561479 204400.37379839
4	3773 21 9 9 8 8 1 15.33153708188 15.33153708188 15.33153708188 235.05602929306
5	3794 22 9 9 8 8 1 13.588559652969 13.588559652969 13.588559652969 184.64895344229
6	3816 22 9 9 8 8 1 2.1744405886125 2.1744405886125 2.1744405886125 4.7281918734054
7	3838 22 9 9 8 8 1 10.216847086916 10.216847086916 10.216847086916 104.38396439742
8	3860 21 9 9 8 8 1 1.449272563459 1.449272563459 1.449272563459 2.1003909631949
9	3881 22 9 9 8 8 1 6.7434411261902 6.7434411261902 6.7434411261902 45.473998222393
0	3903 23 10 10 9 9 1 2013.6466910839 2013.6466910839 2013.6466910839 4054772.996513
1	3926 14 10 10 9 9 1 1013.4 1013.4 1013.4 1026979.56
2	3940 23 10 10 9 9 1 1891.1051099527 1891.1051099527 1891.1051099527 3576278.5368892
3	3963 23 10 10 9 9 1 546.63489004731 546.63489004731 546.63489004731 298809.70301704
4	3986 23 10 10 9 9 1 15.094423869109 15.094423869109 15.094423869109 227.84163194033
5	4009 23 10 10 9 9 1 13.480519930075 13.480519930075 13.480519930075 181.72441758514
6	4032 25 10 10 9 9 1 -0.23711321277078 -0.23711321277078 -0.23711321277078 0.056222675670483
7	4057 23 10 10 9 9 1 1.2932986909428 1.2932986909428 1.2932986909428 1.6726215039943
8	4080 25 10 10 9 9 1 -0.10803972289432 -0.10803972289432 -0.10803972289432 0.011672581723081
9	4105 23 10 10 9 9 1 1.6356044603287 1.6356044603287 1.6356044603287 2.6752019506472
0	4128 24 11 11 10 10 1 1861.7226422811 1861.7226422811 1861.7226422811 3466011.1967822
1	4152 15 11 11 10 10 1 1013.4 1013.4 1013.4 1026979.56
2	4167 24 11 11 10 10 1 1793.5375419686 1793.5375419686 1793.5375419686 3216776.9144508
3	4191 24 11 11 10 10 1 644.20245803138 644.20245803138 644.20245803138 414996.80693368
4	4215 24 11 11 10 10 1 15.320771054897 15.320771054897 15.320771054897 234.72602571657
5	4239 24 11 11 10 10 1 13.913945582473 13.913945582473 13.913945582473 193.59788167203
6	4263 25 11 11 10 10 1 0.22634718578774 0.22634718578774 0.22634718578774 0.051233048514032
7	4288 24 11 11 10 10 1 3.0170284506088 3.0170284506088 3.0170284506088 9.102460671783
8	4312 25 11 11 10 10 1 0.43342565239873 0.43342565239873 0.43342565239873 0.18785779615726
9	4337 24 11 11 10 10 1 3.4834399707214 3.4834399707214 3.4834399707214 12.13435402962
0	4361 23 12 12 11 11 1 1708.138363313 1708.138363313 1708.138363313 2917736.6682217
1	4384 15 12 12 11 11 1 1013.4 1013.4 1013.4 1026979.56
2	4399 24 12 12 11 11 1 1696.7431347482 1696.7431347482 1696.7431347482 2878937.2653152
3	4423 24 12 12 11 11 1 740.99686525177 740.99686525177 740.99686525177 549076.35431295
4	4447 24 12 12 11 11 1 15.488196860507 15.488196860507 15.488196860507 239.88424198981
5	4471 24 12 12 11 11 1 13.803686435764 13.803686435764 13.803686435764 190.5417592169
6	4495 25 12 12 11 11 1 0.16742580560967 0.16742580560967 0.16742580560967 0.028031400384048
7	4520 24 12 12 11 11 1 2.8253155837191 2.8253155837191 2.8253155837191 7.982408147606
8	4544 26 12 12 11 11 1 -0.11025914670899 -0.11025914670899 -0.11025914670899 0.012157079432996
9	4570 24 12 12 11 11 1 1.6520649681329 1.6520649681329 1.6520649681329 2.7293186589319
0	4594 24 13 13 12 12 1 1557.1998062978 1557.1998062978 1557.1998062978 2424871.2367339
1	4618 15 13 13 12 12 1 1013.4 1013.4 1013.4 1026979.56
2	4633 24 13 13 12 12 1 1596.6804563157 1596.6804563157 1596.6804563157 2549388.4795806
3	4657 24 13 13 12 12 1 841.05954368427 841.05954368427 841.05954368427 707381.15602239
4	4681 23 13 13 12 12 1 15.22138919816 15.22138919816 15.22138919816 231.69068912187
5	4704 24 13 13 12 12 1 14.269769056595 14.269769056595 14.269769056595 203.62630892854
6	4728 25 13 13 12 12 1 -0.2668076623464 -0.2668076623464 -0.2668076623464 0.071186328686751
7	4753 24 13 13 12 12 1 1.1913230077145 1.1913230077145 1.1913230077145 1.4192505087099
8	4777 25 13 13 12 12 1 0.46608262083027 0.46608262083027 0.46608262083027 0.21723300944002
9	4802 24 13 13 12 12 1 3.6696638259564 3.6696638259564 3.6696638259564 13.466432595533
0	4826 24 14 14 13 13 1 1434.5123421471 1434.5123421471 1434.5123421471 2057825.6597724
1	4850 15 14 14 13 13 1 1013.4 1013.4 1013.4 1026979.56
2	4865 24 14 14 13 13 1 1510.7508802735 1510.7508802735 1510.7508802735 2282368.2222472
3	4889 24 14 14 13 13 1 926.98911972648 926.98911972648 926.98911972648 859308.82809128
4	4913 23 14 14 13 13 1 14.36512790294 14.36512790294 14.36512790294 206.35689966783
5	4936 24 14 14 13 13 1 12.254271267391 12.254271267391 12.254271267391 150.16716429481
6	4960 26 14 14 13 13 1 -0.85626129521988 -0.85626129521988 -0.85626129521988 0.73318340569163
7	4986 14 14 14 13 13 1 0.973 0.973 0.973 0.946729
8	5000 25 14 14 13 13 1 -2.0154977892034 -2.0154977892034 -2.0154977892034 4.0622313382838
9	5025 14 14 14 13 13 1 0.973 0.973 0.973 0.946729
0	5039 24 15 15 14 14 1 1419.7141897674 1419.7141897674 1419.7141897674 2015588.3806269
1	5063 15 15 15 14 14 1 1013.4 1013.4 1013.4 1026979.56
2	5078 23 15 15 14 14 1 1456.376268517 1456.376268517 1456.376268517 2121031.8354995
3	5101 24 15 15 14 14 1 981.36373148299 981.36373148299 981.36373148299 963074.77347022
4	5125 24 15 15 14 14 1 14.789478198948 14.789478198948 14.789478198948 218.72866539715
5	5149 24 15 15 14 14 1 7.7542712673911 7.7542712673911 7.7542712673911 60.128722888288
6	5173 25 15 15 14 14 1 0.42435029600747 0.42435029600747 0.42435029600747 0.18007317372163
7	5198 24 15 15 14 14 1 3.6347758687501 3.6347758687501 3.6347758687501 13.211595616048
8	5222 13 15 15 14 14 1 -4.5 -4.5 -4.5 20.25
9	5235 14 15 15 14 14 1 0.973 0.973 0.973 0.946729
0	5249 24 16 16 15 15 1 1266.5610427131 1266.5610427131 1266.5610427131 1604176.8749186
1	5273 15 16 16 15 15 1 1013.4 1013.4 1013.4 1026979.56
2	5288 24 16 16 15 15 1 1427.6978230669 1427.6978230669 1427.6978230669 2038321.0739899
3	5312 23 16 16 15 15 1 1009.552804734 1009.552804734 1009.552804734 1019196.8655462
4	5335 24 16 16 15 15 1 15.413573130217 15.413573130217 15.413573130217 237.57823664054
5	5359 24 16 16 15 15 1 9.4323008540919 9.4323008540919 9.4323008540919 88.968299402102
6	5383 25 16 16 15 15 1 0.62409493126906 0.62409493126906 0.62409493126906 0.38949448323574
7	5408 24 16 16 15 15 1 4.5101431359823 4.5101431359823 4.5101431359823 20.341391107048
8	5432 24 16 16 15 15 1 1.6780295867007 1.6780295867007 1.6780295867007 2.815783293843
9	5456 24 16 16 15 15 1 5.4570071674507 5.4570071674507 5.4570071674507 29.778927225609
0	5480 24 17 17 16 16 1 1114.4307890539 1114.4307890539 1114.4307890539 1241955.9835912
1	5504 15 17 17 16 16 1 1013.4 1013.4 1013.4 1026979.56
2	5519 23 17 17 16 16 1 1396.979684148 1396.979684148 1396.979684148 1951552.2379222
3	5542 15 17 17 16 16 1 1013.4 1013.4 1013.4 1026979.56
4	5557 24 17 17 16 16 1 15.271164872191 15.271164872191 15.271164872191 233.20847655365
5	5581 24 17 17 16 16 1 11.318843301096 11.318843301096 11.318843301096 128.11621367477
6	5605 26 17 17 16 16 1 -0.14240825802553 -0.14240825802553 -0.14240825802553 0.020280111953867
7	5631 24 17 17 16 16 1 1.6515635752056 1.6515635752056 1.6515635752056 2.7276622429458
8	5655 24 17 17 16 16 1 1.8865424470045 1.8865424470045 1.8865424470045 3.5590424043496
9	5679 24 17 17 16 16 1 6.9361704205912 6.9361704205912 6.9361704205912 48.110460103485
0	5703 24 18 18 17 17 1 960.85055975754 960.85055975754 960.85055975754 923233.79818637
1	5727 15 18 18 17 17 1 1013.4 1013.4 1013.4 1026979.56
2	5742 24 18 18 17 17 1 1258.5733756237 1258.5733756237 1258.5733756237 1584006.9418287
3	5766 15 18 18 17 17 1 1013.4 1013.4 1013.4 1026979.56
4	5781 23 18 18 17 17 1 15.41671657201 15.41671657201 15.41671657201 237.6751498617
5	5804 24 18 18 17 17 1 13.893525488758 13.893525488758 13.893525488758 193.03005050676
6	5828 25 18 18 17 17 1 0.14555169981904 0.14555169981904 0.14555169981904 0.021185297320213
7	5853 24 18 18 17 17 1 2.7329813290599 2.7329813290599 2.7329813290599 7.4691869449898
8	5877 24 18 18 17 17 1 2.5746821876615 2.5746821876615 2.5746821876615 6.6289883674616
9	5901 24 18 18 17 17 1 10.648882061499 10.648882061499 10.648882061499 113.39868915971
0	5925 23 19 19 18 18 1 814.9941873629 814.9941873629 814.9941873629 664215.52543532
1	5948 15 19 19 18 18 1 1013.4 1013.4 1013.4 1026979.56
2	5963 24 19 19 18 18 1 1119.5066398103 1119.5066398103 1119.5066398103 1253295.1165793
3	5987 15 19 19 18 18 1 1013.4 1013.4 1013.4 1026979.56
4	6002 24 19 19 18 18 1 14.641379061175 14.641379061175 14.641379061175 214.36998081301
5	6026 23 19 19 18 18 1 13.95982061267 13.95982061267 13.95982061267 194.87659153794
6	6049 26 19 19 18 18 1 -0.77533751083538 -0.77533751083538 -0.77533751083538 0.6011482557084
7	6075 14 19 19 18 18 1 0.973 0.973 0.973 0.946729
8	6089 25 19 19 18 18 1 0.06629512391261 0.06629512391261 0.06629512391261 0.0043950434545883
9	6114 24 19 19 18 18 1 2.2577709523834 2.2577709523834 2.2577709523834 5.0975296734261
0	6138 24 20 20 19 19 1 663.04324548723 663.04324548723 663.04324548723 439626.34538624
1	6162 15 20 20 19 19 1 1013.4 1013.4 1013.4 1026979.56
2	6177 24 20 20 19 19 1 983.82925110617 983.82925110617 983.82925110617 967919.99533213
3	6201 15 20 20 19 19 1 1013.4 1013.4 1013.4 1026979.56
4	6216 24 20 20 19 19 1 15.253165166379 15.253165166379 15.253165166379 232.65904759285
5	6240 24 20 20 19 19 1 13.619590597471 13.619590597471 13.619590597471 185.49324804272
6	6264 25 20 20 19 19 1 0.61178610520437 0.61178610520437 0.61178610520437 0.37428223852114
7	6289 24 20 20 19 19 1 4.4225792017069 4.4225792017069 4.4225792017069 19.55920679537
8	6313 26 20 20 19 19 1 -0.34023001519963 -0.34023001519963 -0.34023001519963 0.11575646324274
9	6339 14 20 20 19 19 1 0.973 0.973 0.973 0.946729
0	6353 24 21 21 20 20 1 520.57424195538 520.57424195538 520.57424195538 270997.54138742
1	6377 15 21 21 20 20 1 1013.4 1013.4 1013.4 1026979.56
2	6392 24 21 21 20 20 1 844.20545019968 844.20545019968 844.20545019968 712682.84214684
3	6416 15 21 21 20 20 1 1013.4 1013.4 1013.4 1026979.56
4	6431 24 21 21 20 20 1 14.301347626649 14.301347626649 14.301347626649 204.52854393827
5	6455 24 21 21 20 20 1 14.015740015136 14.015740015136 14.015740015136 196.44096817188
6	6479 26 21 21 20 20 1 -0.95181753973011 -0.95181753973011 -0.95181753973011 0.90595662893788
7	6505 14 21 21 20 20 1 0.973 0.973 0.973 0.946729
8	6519 25 21 21 20 20 1 0.39614941766486 0.39614941766486 0.39614941766486 0.15693436111621
9	6544 24 21 21 20 20 1 3.3785737511716 3.3785737511716 3.3785737511716 11.414760592106
0	6568 24 22 22 21 21 1 367.47147591766 367.47147591766 367.47147591766 135035.2856131
1	6592 15 22 22 21 21 1 1013.4 1013.4 1013.4 1026979.56
2	6607 23 22 22 21 21 1 705.4263266523 705.4263266523 705.4263266523 497626.30233416
3	6630 15 22 22 21 21 1 1013.4 1013.4 1013.4 1026979.56
4	6645 23 22 22 21 21 1 15.36878777437 15.36878777437 15.36878777437 236.19963765364
5	6668 24 22 22 21 21 1 13.930949469504 13.930949469504 13.930949469504 194.07135312186
6	6692 24 22 22 21 21 1 1.0674401477212 1.0674401477212 1.0674401477212 1.1394284689671
7	6716 24 22 22 21 21 1 6.1404030120539 6.1404030120539 6.1404030120539 37.70454915044
8	6740 27 22 22 21 21 1 -0.084790545632131 -0.084790545632131 -0.084790545632131 0.0071894366285946
9	6767 24 22 22 21 21 1 1.7471120909585 1.7471120909585 1.7471120909585 3.0524006583732
0	6791 24 23 23 22 22 1 215.92973251681 215.92973251681 215.92973251681 46625.649384782
1	6815 15 23 23 22 22 1 1013.4 1013.4 1013.4 1026979.56
2	6830 24 23 23 22 22 1 560.52619395363 560.52619395363 560.52619395363 314189.61410814
3	6854 15 23 23 22 22 1 1013.4 1013.4 1013.4 1026979.56
4	6869 24 23 23 22 22 1 15.212088935819 15.212088935819 15.212088935819 231.40764979126
5	6893 24 23 23 22 22 1 14.545389646163 14.545389646163 14.545389646163 211.5683599587
6	6917 26 23 23 22 22 1 -0.15669883855153 -0.15669883855153 -0.15669883855153 0.024554526003398
7	6943 24 23 23 22 22 1 1.5945470091518 1.5945470091518 1.5945470091518 2.5425801643949
8	6967 25 23 23 22 22 1 0.61444017665926 0.61444017665926 0.61444017665926 0.37753673069307
9	6992 23 23 23 22 22 1 4.249833709982 4.249833709982 4.249833709982 18.061086562499
0	7015 24 24 24 23 23 1 73.072962170594 73.072962170594 73.072962170594 5339.657800385
1	7039 15 24 24 23 23 1 1013.4 1013.4 1013.4 1026979.56
2	7054 24 24 24 23 23 1 421.77225272195 421.77225272195 421.77225272195 177891.83316615
3	7078 15 24 24 23 23 1 1013.4 1013.4 1013.4 1026979.56
4	7093 24 24 24 23 23 1 14.340272500642 14.340272500642 14.340272500642 205.64341539267
5	7117 24 24 24 23 23 1 13.928421614027 13.928421614027 13.928421614027 194.0009286581
6	7141 26 24 24 23 23 1 -0.87181643517688 -0.87181643517688 -0.87181643517688 0.76006389664452
7	7167 14 24 24 23 23 1 0.973 0.973 0.973 0.946729
8	7181 26 24 24 23 23 1 -0.61696803213563 -0.61696803213563 -0.61696803213563 0.38064955267731
9	7207 14 24 24 23 23 1 0.973 0.973 0.973 0.946729
2	7221 24 25 25 24 24 1 288.90347580933 288.90347580933 288.90347580933 83465.218334711
3	7245 15 25 25 24 24 1 1013.4 1013.4 1013.4 1026979.56
5	7260 24 25 25 24 24 1 13.337656053236 13.337656053236 13.337656053236 177.89306899443
8	7284 25 25 25 24 24 1 -0.5907655607909 -0.5907655607909 -0.5907655607909 0.34900394781658
9	7309 14 25 25 24 24 1 0.973 0.973 0.973 0.946729
2	7323 24 26 26 25 25 1 145.03979392929 145.03979392929 145.03979392929 21036.541823052
3	7347 15 26 26 25 25 1 1013.4 1013.4 1013.4 1026979.56
5	7362 24 26 26 25 25 1 14.441348464658 14.441348464658 14.441348464658 208.55254547768
8	7386 24 26 26 25 25 1 1.1036924114218 1.1036924114218 1.1036924114218 1.2181369390301
9	7410 24 26 26 25 25 1 5.9261279289038 5.9261279289038 5.9261279289038 35.118992229734

