version 2
run General-0-20220111-09:08:56-16292
attr configname General
attr datetime 20220111-09:08:56
attr experiment General
attr inifile omnetpp.ini
attr iterationvars ""
attr iterationvarsf ""
attr measurement ""
attr network org.car2x.veins.nodes.Scenario
attr processid 16292
attr repetition 0
attr replication #0
attr resultdir results
attr runnumber 0
attr seedset 0
param *.playgroundSizeX 400m
param *.playgroundSizeY 200m
param *.playgroundSizeZ 50m
param *.manager.updateInterval 1s
param *.manager.host "\"localhost\""
param *.manager.port 9999
param *.manager.autoShutdown true
param *.manager.launchConfig "xmldoc(\"veins.launchd.xml\")"
param *.annotations.draw true
param *.connectionManager.sendDirect true
param *.connectionManager.maxInterfDist 500m
param *.connectionManager.drawMaxIntfDist false
param *.**.nic.mac1609_4.useServiceChannel false
param *.**.nic.mac1609_4.txPower 20mW
param *.**.nic.mac1609_4.bitrate 6Mbps
param *.**.nic.phy80211p.minPowerLevel -110dBm
param *.**.nic.phy80211p.useNoiseFloor true
param *.**.nic.phy80211p.noiseFloor -98dBm
param *.**.nic.phy80211p.decider "xmldoc(\"config.xml\")"
param *.**.nic.phy80211p.analogueModels "xmldoc(\"config.xml\")"
param *.**.nic.phy80211p.usePropagationDelay true
param *.**.nic.phy80211p.antenna "xmldoc(\"antenna.xml\", \"/root/Antenna[@id='monopole']\")"
param *.node[*].nic.phy80211p.antennaOffsetY "0 m"
param *.node[*].nic.phy80211p.antennaOffsetZ "0 m"
param *.node[*].applType "\"InteractingVehicle\""
param *.node[*].appl.headerLength "88 bit"
param *.node[*].appl.dataLengthBits "512 bit"
param *.node[*].appl.sendBeacons false
param *.node[*].appl.dataOnSch false
param *.node[*].appl.beaconInterval 1s
param *.node[*].veinsmobility.x 0
param *.node[*].veinsmobility.y 0
param *.node[*].veinsmobility.z 0
param *.obstacles.obstacles "xmldoc(\"config.xml\", \"//AnalogueModel[@type='SimpleObstacleShadowing']/obstacles\")"

vector 0 Scenario.node[0].veinsmobility posx ETV
vector 1 Scenario.node[0].veinsmobility posy ETV
vector 2 Scenario.node[0].veinsmobility speed ETV
vector 3 Scenario.node[0].veinsmobility acceleration ETV
vector 4 Scenario.node[0].veinsmobility co2emission ETV
vector 5 Scenario.node[1].veinsmobility posx ETV
vector 6 Scenario.node[1].veinsmobility posy ETV
vector 7 Scenario.node[1].veinsmobility speed ETV
vector 8 Scenario.node[1].veinsmobility acceleration ETV
vector 9 Scenario.node[1].veinsmobility co2emission ETV
vector 10 Scenario.node[2].veinsmobility posx ETV
vector 11 Scenario.node[2].veinsmobility posy ETV
vector 12 Scenario.node[3].veinsmobility posx ETV
vector 13 Scenario.node[3].veinsmobility posy ETV
vector 14 Scenario.node[2].veinsmobility speed ETV
vector 15 Scenario.node[2].veinsmobility acceleration ETV
vector 16 Scenario.node[2].veinsmobility co2emission ETV
vector 17 Scenario.node[3].veinsmobility speed ETV
vector 18 Scenario.node[4].veinsmobility posx ETV
vector 19 Scenario.node[4].veinsmobility posy ETV
vector 20 Scenario.node[3].veinsmobility acceleration ETV
vector 21 Scenario.node[3].veinsmobility co2emission ETV
vector 22 Scenario.node[4].veinsmobility speed ETV
vector 23 Scenario.node[4].veinsmobility acceleration ETV
vector 24 Scenario.node[4].veinsmobility co2emission ETV
vector 25 Scenario.node[5].veinsmobility posx ETV
vector 26 Scenario.node[5].veinsmobility posy ETV
vector 27 Scenario.node[5].veinsmobility speed ETV
vector 28 Scenario.node[5].veinsmobility acceleration ETV
vector 29 Scenario.node[5].veinsmobility co2emission ETV
vector 30 Scenario.node[6].veinsmobility posx ETV
vector 31 Scenario.node[6].veinsmobility posy ETV
vector 32 Scenario.node[6].veinsmobility speed ETV
vector 33 Scenario.node[6].veinsmobility acceleration ETV
vector 34 Scenario.node[6].veinsmobility co2emission ETV
vector 35 Scenario.node[7].veinsmobility posx ETV
vector 36 Scenario.node[7].veinsmobility posy ETV
vector 37 Scenario.node[8].veinsmobility posx ETV
vector 38 Scenario.node[8].veinsmobility posy ETV
vector 39 Scenario.node[7].veinsmobility speed ETV
vector 40 Scenario.node[8].veinsmobility speed ETV
vector 41 Scenario.node[7].veinsmobility acceleration ETV
vector 42 Scenario.node[7].veinsmobility co2emission ETV
vector 43 Scenario.node[8].veinsmobility acceleration ETV
vector 44 Scenario.node[8].veinsmobility co2emission ETV
vector 45 Scenario.node[9].veinsmobility posx ETV
vector 46 Scenario.node[9].veinsmobility posy ETV
4	33	10	4.3074415471536
4	47	11	6.131347755747
4	61	12	5.4683231423283
4	75	13	5.2240617468017
4	89	14	2.676203228771
4	103	15	0.973
4	141	16	0.973
4	180	17	3.4160494520595
4	219	18	2.8540364619908
4	295	19	0.973
4	419	20	2.637436231569
4	544	21	0.973
4	726	22	0.973
4	912	23	0.973
4	1098	24	4.0241334884092
4	1284	25	5.7844741838642
4	1470	26	4.8161546400953
4	1656	27	3.5593086829748
4	1842	28	1.2385880942018
4	2028	29	0.973
4	2284	30	3.2954422194931
4	2543	31	1.3344333972569
4	2802	32	0.973
4	3146	33	2.5177432013354
4	3490	34	2.616230608626
4	3834	35	0.973
4	4382	36	3.1612415407316
4	4932	37	1.8474642929673
4	5482	38	3.2573195034702
3	33	10	2.5112010973739
3	47	11	2.5746821876615
3	61	12	1.7358635865385
3	75	13	1.3734977386487
3	89	14	0.34983377945609
3	103	15	-0.69006379465573
3	141	16	-0.26175374507438
3	180	17	0.65790316273924
3	219	18	0.40953698498197
3	295	19	-0.4943275306141
3	419	20	0.33762869206257
3	544	21	-0.87181643517688
3	726	22	-1.1639702875486
3	912	23	-3.0096026004176
3	1098	24	1.4433793524047
3	1284	25	1.8865424470045
3	1470	26	1.2381960612458
3	1656	27	0.67149722278118
3	1842	28	-0.19634001890663
3	2028	29	-0.71835363695864
3	2284	30	0.5992305384716
3	2543	31	-0.15526809638832
3	2802	32	-0.70175777263939
3	3146	33	0.33118503121659
3	3490	34	0.34824435375631
3	3834	35	-0.67912599111442
3	4382	36	0.57134173787199
3	4932	37	0.048588028876111
3	5482	38	0.55779013079591
2	19	9	2.3656493975548
2	33	10	4.8768504949287
2	47	11	7.4515326825902
2	61	12	9.1873962691287
2	75	13	10.560894007777
2	89	14	10.910727787233
2	103	15	10.220663992578
2	141	16	9.9589102475034
2	180	17	10.616813410243
2	219	18	11.026350395225
2	295	19	10.53202286461
2	419	20	10.869651556673
2	544	21	9.9978351214962
2	726	22	8.8338648339476
2	912	23	5.82426223353
2	1098	24	7.2676415859348
2	1284	25	9.1541840329392
2	1470	26	10.392380094185
2	1656	27	11.063877316966
2	1842	28	10.86753729806
2	2028	29	10.149183661101
2	2284	30	10.748414199573
2	2543	31	10.593146103184
2	2802	32	9.8913883305449
2	3146	33	10.222573361761
2	3490	34	10.570817715518
2	3834	35	9.8916917244033
2	4382	36	10.463033462275
2	4932	37	10.511621491151
2	5482	38	11.069411621947
1	9	8	27.174435714286
1	19	9	28.707207548944
1	33	10	31.867058323194
1	47	11	36.695119249178
1	61	12	42.647895788983
1	75	13	49.490600756451
1	89	14	56.559973024879
1	103	15	63.182233244641
1	141	16	69.634895734291
1	180	17	76.513832480314
1	219	18	83.658119939962
1	295	19	90.482118468882
1	419	20	97.524876273924
1	544	21	104.00275930157
1	726	22	109.72647272363
1	912	23	113.50017863222
1	1098	24	118.3290570455
1	1284	25	122.34965615507
1	1470	26	122.4
1	1656	27	122.4
1	1842	28	122.4
1	2028	29	122.4
1	2284	30	122.4
1	2543	31	122.4
1	2802	32	122.4
1	3146	33	122.4
1	3490	34	122.4
1	3834	35	122.4
1	4382	36	122.4
1	4932	37	122.4
1	5482	38	122.4
0	9	8	259.56556428571
0	19	9	258.03279245106
0	33	10	254.87294167681
0	47	11	250.04488075082
0	61	12	244.09210421102
0	75	13	237.24939924355
0	89	14	230.18002697512
0	103	15	223.55776675536
0	141	16	217.10510426571
0	180	17	210.22616751969
0	219	18	203.08188006004
0	295	19	196.25788153112
0	419	20	189.21512372608
0	544	21	182.73724069843
0	726	22	177.01352727637
0	912	23	173.23982136778
0	1098	24	168.00226664301
0	1284	25	159.92993862792
0	1470	26	149.92794237244
0	1656	27	139.28528267047
0	1842	28	128.8314880424
0	2028	29	119.06869830212
0	2284	30	108.729491586
0	2543	31	98.539641688028
0	2802	32	89.024832641782
0	3146	33	79.191447251579
0	3490	34	69.023075667659
0	3834	35	59.507974778192
0	4382	36	49.443283947016
0	4932	37	39.331854902635
0	5482	38	28.68387159458
vector 47 Scenario.node[9].veinsmobility speed ETV
21	544	21	3.4943636271076
21	726	22	3.379540368549
21	912	23	4.1769740323349
21	1098	24	2.4146438880437
21	1284	25	1.5769774541033
21	1470	26	3.2370128972483
21	1656	27	0.973
21	1842	28	0.973
21	2028	29	1.7963031556353
21	2284	30	1.3512070462368
21	2543	31	3.45304845094
21	2802	32	0.973
21	3146	33	3.285552725694
21	3490	34	0.973
21	3834	35	3.8302761654045
21	4382	36	0.973
21	4932	37	0.973
21	5482	38	3.5242640072362
21	6149	39	1.9051310117638
20	544	21	1.9664169136435
20	726	22	1.3756513528526
20	912	23	1.4939663887955
20	1098	24	0.46281169067855
20	1284	25	0.021063291886822
20	1470	26	0.78653362165205
20	1656	27	-0.53191119695548
20	1842	28	-0.48880732778925
20	2028	29	0.14107008504216
20	2284	30	-0.093295190110802
20	2543	31	0.89968792006839
20	2802	32	-0.60742161783855
20	3146	33	0.79540552513208
20	3490	34	-1.2585241494235
20	3834	35	1.0798668400384
20	4382	36	-0.99237634970341
20	4932	37	-1.0022555594051
20	5482	38	1.0767124038374
20	6149	39	0.19345933469012
17	419	20	2.5833849457791
17	544	21	4.5498018594226
17	726	22	5.9254532122752
17	912	23	7.4194196010707
17	1098	24	7.8822312917492
17	1284	25	7.9032945836361
17	1470	26	8.6898282052881
17	1656	27	8.1579170083326
17	1842	28	7.6691096805434
17	2028	29	7.8101797655855
17	2284	30	7.7168845754747
17	2543	31	8.6165724955431
17	2802	32	8.0091508777046
17	3146	33	8.8045564028367
17	3490	34	7.5460322534132
17	3834	35	8.6258990934516
17	4382	36	7.6335227437482
17	4932	37	6.6312671843431
17	5482	38	7.7079795881805
17	6149	39	7.9014389228706
13	295	19	27.174435714286
13	419	20	28.848284631654
13	544	21	31.796231250713
13	726	22	35.635501685609
13	912	23	40.44275562856
13	1098	24	45.549878489093
13	1284	25	50.670648858247
13	1470	26	56.30103683326
13	1656	27	61.586784346301
13	1842	28	66.555819625745
13	2028	29	71.616258243861
13	2284	30	76.616248242728
13	2543	31	82.199171750376
13	2802	32	87.388529436923
13	3146	33	93.093253089075
13	3490	34	97.982542986983
13	3834	35	103.57150946389
13	4382	36	108.51748695021
13	4932	37	112.81407442373
13	5482	38	117.957312485
13	6149	39	121.99381063094
12	295	19	259.56556428571
12	419	20	257.89171536835
12	544	21	254.94376874929
12	726	22	251.10449831439
12	912	23	246.29724437144
12	1098	24	241.19012151091
12	1284	25	236.06935114175
12	1470	26	230.43896316674
12	1656	27	225.1532156537
12	1842	28	220.18418037426
12	2028	29	215.12374175614
12	2284	30	210.12375175727
12	2543	31	204.54082824962
12	2802	32	199.35147056308
12	3146	33	193.64674691093
12	3490	34	188.75745701302
12	3834	35	183.16849053611
12	4382	36	178.22251304979
12	4932	37	173.92592557627
12	5482	38	168.49630721656
12	6149	39	161.767263477
vector 48 Scenario.node[9].veinsmobility acceleration ETV
vector 49 Scenario.node[9].veinsmobility co2emission ETV
5	103	15	300.32730714286
5	141	16	298.86385348974
5	180	17	295.37409070761
5	219	18	289.52688798154
5	295	19	281.88662357786
5	419	20	272.80887757058
5	544	21	264.19433775056
5	726	22	255.28370816136
5	912	23	245.91420497742
5	1098	24	236.62510348495
5	1284	25	227.12491152914
5	1470	26	218.33398138754
5	1656	27	208.73327246777
5	1842	28	200.18889333162
5	2028	29	191.31304839594
5	2284	30	183.4052222066
5	2543	31	179.14553887308
5	2802	32	172.28550309887
5	3146	33	163.31795780053
5	3490	34	153.18078864283
5	3834	35	143.48128954918
5	4382	36	133.72659066134
5	4932	37	123.75039268769
5	5482	38	114.19014937386
5	6149	39	104.73058474998
5	6699	40	95.495295445969
5	7140	41	86.41570559868
6	103	15	122.4
6	141	16	122.4
6	180	17	122.4
6	219	18	122.4
6	295	19	122.4
6	419	20	122.4
6	544	21	122.4
6	726	22	122.4
6	912	23	122.4
6	1098	24	122.4
6	1284	25	122.4
6	1470	26	122.4
6	1656	27	122.4
6	1842	28	122.4
6	2028	29	122.4
6	2284	30	122.4
6	2543	31	122.4
6	2802	32	122.4
6	3146	33	122.4
6	3490	34	122.4
6	3834	35	122.4
6	4382	36	122.4
6	4932	37	122.4
6	5482	38	122.4
6	6149	39	122.4
6	6699	40	122.4
6	7140	41	122.4
7	141	16	1.5972831639228
7	180	17	3.8088936578948
7	219	18	6.3819161273073
7	295	19	8.3389492205111
7	419	20	9.9078852500139
7	544	21	9.4023199095927
7	726	22	9.7254864152824
7	912	23	10.226322957438
7	1098	24	10.138568714012
7	1284	25	10.368962920511
7	1470	26	9.5948407252157
7	1656	27	10.478671932391
7	1842	28	9.3257431906253
7	2028	29	9.6875207842398
7	2284	30	8.6309789234307
7	2543	31	4.6492216940271
7	2802	32	7.0783260996454
7	3146	33	8.9622888239567
7	3490	34	10.391862335482
7	3834	35	10.083388082807
7	4382	36	10.140772587045
7	4932	37	10.371038214241
7	5482	38	9.9386208059337
7	6149	39	9.8339574318217
7	6699	40	9.6008056921489
7	7140	41	9.4389439267875
8	180	17	2.211610493972
8	219	18	2.5730224694125
8	295	19	1.9570330932038
8	419	20	1.5689360295027
8	544	21	-0.50556534042116
8	726	22	0.32316650568973
8	912	23	0.50083654215559
8	1098	24	-0.087754243426025
8	1284	25	0.23039420649875
8	1470	26	-0.77412219529506
8	1656	27	0.88383120717481
8	1842	28	-1.1529287417652
8	2028	29	0.36177759361453
8	2284	30	-1.0565418608091
8	2543	31	-3.9817572294036
8	2802	32	2.4291044056183
8	3146	33	1.8839627243113
8	3490	34	1.4295735115256
8	3834	35	-0.30847425267566
8	4382	36	0.057384504238144
8	4932	37	0.23026562719606
8	5482	38	-0.43241740830708
8	6149	39	-0.10466337411199
8	6699	40	-0.23315173967276
8	7140	41	-0.16186176536139
9	180	17	3.328978911834
9	219	18	5.3992915792338
9	295	19	5.4988625648564
9	419	20	5.4241118633496
9	544	21	0.973
9	726	22	2.4215868023192
9	912	23	2.9364455751245
9	1098	24	1.4809388562551
9	1284	25	2.2889215871233
9	1470	26	0.973
9	1656	27	3.9537728138115
9	1842	28	0.973
9	2028	29	2.5059521630092
9	2284	30	0.973
9	2543	31	0.973
9	2802	32	5.627972337685
9	3146	33	5.678034970113
9	3490	34	5.2952527814364
9	3834	35	0.973
9	4382	36	1.8357697444413
9	4932	37	2.2888774050496
9	5482	38	0.973
9	6149	39	1.4241928276868
9	6699	40	0.973
9	7140	41	1.2748198872957
10	219	18	300.32730714286
10	295	19	298.69987483051
10	419	20	295.58216963411
10	544	21	290.67606831667
10	726	22	283.655560328
10	912	23	275.09761766015
10	1098	24	265.86243472618
10	1284	25	256.60493935625
10	1470	26	248.30389851297
10	1656	27	239.26757894893
10	1842	28	230.79886713908
10	2028	29	221.39872674805
10	2284	30	212.30976685052
10	2543	31	203.51739131196
10	2802	32	194.72699705742
10	3146	33	185.45972552937
10	3490	34	179.52432762082
10	3834	35	171.57503801129
10	4382	36	162.19056580632
10	4932	37	153.23610090624
10	5482	38	143.66434136137
10	6149	39	134.41687058813
10	6699	40	125.59586860019
10	7140	41	116.1021410288
11	219	18	122.4
11	295	19	122.4
11	419	20	122.4
11	544	21	122.4
11	726	22	122.4
11	912	23	122.4
11	1098	24	122.4
11	1284	25	122.4
11	1470	26	122.4
11	1656	27	122.4
11	1842	28	122.4
11	2028	29	122.4
11	2284	30	122.4
11	2543	31	122.4
11	2802	32	122.4
11	3146	33	122.4
11	3490	34	122.4
11	3834	35	122.4
11	4382	36	122.4
11	4932	37	122.4
11	5482	38	122.4
11	6149	39	122.4
11	6699	40	122.4
11	7140	41	122.4
14	295	19	1.7762572988868
14	419	20	3.4028122514719
14	544	21	5.3547531335615
14	726	22	7.6625174897723
14	912	23	9.340547076473
14	1098	24	10.079719425872
14	1284	25	10.104072283389
14	1470	26	9.0601521638634
14	1656	27	9.8626704526778
14	1842	28	9.243156259292
14	2028	29	10.259761867504
14	2284	30	9.9201246250367
14	2543	31	9.5964183004519
14	2802	32	9.5942558325075
14	3146	33	10.114742448944
14	3490	34	6.4781765588018
14	3834	35	8.2018028543255
14	4382	36	9.3789713420153
14	4932	37	9.2076297558557
14	5482	38	9.9505928290023
14	6149	39	9.613469282346
14	6699	40	9.1701216181221
14	7140	41	9.8694724882666
15	419	20	1.6265549525851
15	544	21	1.9519408820895
15	726	22	2.3077643562108
15	912	23	1.6780295867007
15	1098	24	0.73917234939916
15	1284	25	0.024352857517078
15	1470	26	-1.0439201195259
15	1656	27	0.80251828881446
15	1842	28	-0.61951419338584
15	2028	29	1.0166056082118
15	2284	30	-0.33963724246714
15	2543	31	-0.32370632458478
15	2802	32	-0.0021624679444354
15	3146	33	0.52048661643639
15	3490	34	-3.636565890142
15	3834	35	1.7236262955237
15	4382	36	1.1771684876897
15	4932	37	-0.17134158615954
15	5482	38	0.74296307314653
15	6149	39	-0.33712354665622
15	6699	40	-0.44334766422398
15	7140	41	0.69935087014455
16	419	20	2.6116930695776
16	544	21	3.9014679754244
16	726	22	5.7828725756006
16	912	23	5.4132348867895
16	1098	24	3.4864581451632
16	1284	25	1.7520148630265
16	1470	26	0.973
16	1656	27	3.5819088177411
16	1842	28	0.973
16	2028	29	4.2183590464237
16	2284	30	0.973
16	2543	31	0.973
16	2802	32	1.6494111063865
16	3146	33	2.96229634199
16	3490	34	0.973
16	3834	35	4.9636025109491
16	4382	36	4.2994479149856
16	4932	37	1.2460758803984
16	5482	38	3.4627274280043
16	6149	39	0.973
16	6699	40	0.973
16	7140	41	3.3383478743401
18	544	21	300.32730714286
18	726	22	297.97513151261
18	912	23	294.14665057358
18	1098	24	288.24998419495
18	1284	25	280.78747806189
18	1470	26	272.45776810601
18	1656	27	263.7654824293
18	1842	28	254.69911417284
18	2028	29	246.25643455541
18	2284	30	237.82052050019
18	2543	31	229.36928950163
18	2802	32	220.55965294673
18	3146	33	212.18483324394
18	3490	34	203.57795874591
18	3834	35	194.49314023628
18	4382	36	185.7170513592
18	4932	37	179.72525712772
18	5482	38	171.6595613454
18	6149	39	161.87897907406
18	6699	40	152.17887159881
18	7140	41	142.88875599891
19	544	21	122.4
19	726	22	122.4
19	912	23	122.4
19	1098	24	122.4
19	1284	25	122.4
19	1470	26	122.4
19	1656	27	122.4
19	1842	28	122.4
19	2028	29	122.4
19	2284	30	122.4
19	2543	31	122.4
19	2802	32	122.4
19	3146	33	122.4
19	3490	34	122.4
19	3834	35	122.4
19	4382	36	122.4
19	4932	37	122.4
19	5482	38	122.4
19	6149	39	122.4
19	6699	40	122.4
19	7140	41	122.4
22	726	22	2.5672767461976
22	912	23	4.1785868204897
22	1098	24	6.4359031184809
22	1284	25	8.1449353600154
22	1470	26	9.0914430016593
22	1656	27	9.4871754481864
22	1842	28	9.8954670297389
22	2028	29	9.2147434820362
22	2284	30	9.2073592245287
22	2543	31	9.2240768675401
22	2802	32	9.6152577975008
22	3146	33	9.1406779324111
22	3490	34	9.3939536113233
22	3834	35	9.9156045166251
22	4382	36	9.5786422607896
22	4932	37	6.5397301972939
22	5482	38	8.3366331186474
22	6149	39	9.7748492219427
22	6699	40	9.9952982355782
22	7140	41	9.6578019156993
23	912	23	1.6113100742921
23	1098	24	2.2573162979912
23	1284	25	1.7090322415344
23	1470	26	0.94650764164392
23	1656	27	0.39573244652711
23	1842	28	0.40829158155248
23	2028	29	-0.68072354770266
23	2284	30	-0.0073842575075105
23	2543	31	0.016717643011361
23	2802	32	0.39118092996068
23	3146	33	-0.47457986508962
23	3490	34	0.25327567891218
23	3834	35	0.5216509053018
23	4382	36	-0.33696225583553
23	4932	37	-3.0389120634957
23	5482	38	1.7969029213535
23	6149	39	1.4382161032953
23	6699	40	0.22044901363552
23	7140	41	-0.33749631987885
24	912	23	2.9409678137599
24	1098	24	4.9463108104029
24	1284	25	4.9075368735776
24	1470	26	3.6918230457555
24	1656	27	2.5513506956824
24	1842	28	2.6505662434834
24	2028	29	0.973
24	2284	30	1.6098846243467
24	2543	31	1.6646334026964
24	2802	32	2.5624358970742
24	3146	33	0.973
24	3490	34	2.2131464292143
24	3834	35	2.9249570791336
24	4382	36	0.973
24	4932	37	0.973
24	5482	38	5.175891730783
24	6149	39	5.0558785671544
24	6699	40	2.215454151544
24	7140	41	0.973
25	2028	29	259.56556428571
25	2284	30	258.37594514312
25	2543	31	256.12235412086
25	2802	32	252.75060899344
25	3146	33	248.51134730586
25	3490	34	242.85394977617
25	3834	35	235.53312137128
25	4382	36	228.73355612276
25	4932	37	221.51327820541
25	5482	38	214.09518811732
25	6149	39	207.25902905231
25	6699	40	200.4300115672
25	7140	41	193.46451754226
26	2028	29	27.174435714286
26	2284	30	28.364054856878
26	2543	31	30.617645879142
26	2802	32	33.989391006563
26	3146	33	38.228652694145
26	3490	34	43.886050223829
26	3834	35	51.206878628717
26	4382	36	58.006443877241
26	4932	37	65.226721794586
26	5482	38	72.644811882677
26	6149	39	79.480970947693
26	6699	40	86.309988432803
26	7140	41	93.275482457735
27	2284	30	1.8360343949171
27	2543	31	3.4781473169103
27	2802	32	5.2038840021938
27	3146	33	6.5427917127265
27	3490	34	8.7315142118372
27	3834	35	11.298820159677
27	4382	36	10.494313028259
27	4932	37	11.14363254799
27	5482	38	11.448931896514
27	6149	39	10.550791192837
27	6699	40	10.539769021226
27	7140	41	10.750404183557
28	2543	31	1.6421129219932
28	2802	32	1.7257366852835
28	3146	33	1.3389077105327
28	3490	34	2.1887224991107
28	3834	35	2.5673059478402
28	4382	36	-0.8045071314182
28	4932	37	0.64931951973122
28	5482	38	0.30529934852384
28	6149	39	-0.8981407036772
28	6699	40	-0.011022171610966
28	7140	41	0.21063516233116
29	2543	31	2.6581469126325
29	2802	32	3.5383622817872
29	3146	33	3.5627049967993
29	3490	34	6.1984211168676
29	3834	35	8.77912084207
29	4382	36	0.973
29	4932	37	3.5192273258645
29	5482	38	2.643309489077
29	6149	39	0.973
29	6699	40	1.6986010363819
29	7140	41	2.2890980012772
30	2802	32	259.56556428571
30	3146	33	257.97927862972
30	3490	34	255.36378057067
30	3834	35	251.70296215421
30	4382	36	246.70364380113
30	4932	37	240.74992965571
30	5482	38	234.75505659417
30	6149	39	229.13450357505
30	6699	40	223.41308755122
30	7140	41	218.00179361857
31	2802	32	27.174435714286
31	3146	33	28.760721370285
31	3490	34	31.376219429329
31	3834	35	35.037037845792
31	4382	36	40.036356198873
31	4932	37	45.99007034429
31	5482	38	51.984943405828
31	6149	39	57.605496424948
31	6699	40	63.326912448777
31	7140	41	68.73820638143
32	3146	33	2.4482415592531
32	3490	34	4.0367074001348
32	3834	35	5.6500339356717
32	4382	36	7.7158479708014
32	4932	37	9.1888433508809
32	5482	38	9.252367198933
32	6149	39	8.6746491310421
32	6699	40	8.8303190754728
32	7140	41	8.3516828417081
33	3490	34	1.5884658408817
33	3834	35	1.6133265355369
33	4382	36	2.0658140351297
33	4932	37	1.4729953800795
33	5482	38	0.063523848052137
33	6149	39	-0.57771806789096
33	6699	40	0.1556699444307
33	7140	41	-0.4786362337647
34	3490	34	2.856140686367
34	3834	35	3.5960188600857
34	4382	36	5.3660686489797
34	4932	37	4.8869075827874
34	5482	38	1.7711506718206
34	6149	39	0.973
34	6699	40	1.930863430843
34	7140	41	0.973
35	3834	35	300.32730714286
35	4382	36	298.92907886661
35	4932	37	295.27423530756
35	5482	38	289.57499671325
35	6149	39	282.1047889415
35	6699	40	272.52466183807
35	7140	41	263.6411178821
36	3834	35	122.4
36	4382	36	122.4
36	4932	37	122.4
36	5482	38	122.4
36	6149	39	122.4
36	6699	40	122.4
36	7140	41	122.4
37	3834	35	259.56556428571
37	4382	36	258.17122967444
37	4932	37	255.18633382729
37	5482	38	251.1171578402
37	6149	39	246.57107579896
37	6699	40	241.65589357654
37	7140	41	237.07558543771
38	3834	35	27.174435714286
38	4382	36	28.568770325557
38	4932	37	31.553666172714
38	5482	38	35.6228421598
38	6149	39	40.168924201037
38	6699	40	45.084106423455
38	7140	41	49.664414562291
39	4382	36	1.526093074563
39	4932	37	3.9890706967097
39	5482	38	6.2204210119555
39	6149	39	8.1533412960591
39	6699	40	10.456207955721
39	7140	41	9.6959238624426
40	4382	36	2.1519881554181
40	4932	37	4.6068285591668
40	5482	38	6.2802848439198
40	6149	39	7.0163321108283
40	6699	40	7.5859939492732
40	7140	41	7.0691559854155
41	4932	37	2.4629776221467
41	5482	38	2.2313503152458
41	6149	39	1.9329202841036
41	6699	40	2.3028666596619
41	7140	41	-0.76028409327846
42	4932	37	3.6761197265148
42	5482	38	4.7773729994238
42	6149	39	5.3514892755835
42	6699	40	7.523115007338
42	7140	41	0.973
43	4932	37	2.4548404037487
43	5482	38	1.673456284753
43	6149	39	0.73604726690853
43	6699	40	0.56966183844488
43	7140	41	-0.51683796385769
44	4932	37	4.0667412640702
44	5482	38	3.9687013189395
44	6149	39	2.7249849696276
44	6699	40	2.5577464251941
44	7140	41	0.973
45	5482	38	259.56556428571
45	6149	39	257.92784433601
45	6699	40	254.94384507074
45	7140	41	250.87988100949
46	5482	38	27.174435714286
46	6149	39	28.81215566399
46	6699	40	31.79615492926
46	7140	41	35.860118990508
47	6149	39	2.5276242195861
47	6699	40	4.6054447926115
47	7140	41	6.272240861808
48	6699	40	2.0778205730254
48	7140	41	1.6667960691964
49	6699	40	3.6473888077448
49	7140	41	3.9549136519281
vector 50 Scenario.node[10].veinsmobility posx ETV
vector 51 Scenario.node[10].veinsmobility posy ETV
vector 52 Scenario.node[11].veinsmobility posx ETV
vector 53 Scenario.node[11].veinsmobility posy ETV
vector 54 Scenario.node[10].veinsmobility speed ETV
vector 55 Scenario.node[10].veinsmobility acceleration ETV
vector 56 Scenario.node[10].veinsmobility co2emission ETV
vector 57 Scenario.node[11].veinsmobility speed ETV
vector 58 Scenario.node[12].veinsmobility posx ETV
vector 59 Scenario.node[12].veinsmobility posy ETV
vector 60 Scenario.node[11].veinsmobility acceleration ETV
vector 61 Scenario.node[11].veinsmobility co2emission ETV
vector 62 Scenario.node[12].veinsmobility speed ETV
9	7581	42	2.9662771826217
9	8022	43	2.0250213046901
9	8572	44	0.973
9	9240	45	2.426930614034
9	9911	46	2.2979428936866
9	10715	47	0.973
8	7581	42	0.53403575092088
8	8022	43	0.13623572173528
8	8572	44	-0.52765177399851
8	9240	45	0.31447991158348
8	9911	46	0.24640223509632
8	10715	47	-0.43935469062999
7	7581	42	9.9729796777084
7	8022	43	10.109215399444
7	8572	44	9.5815636254452
7	9240	45	9.8960435370287
7	9911	46	10.142445772125
7	10715	47	9.703091081495
6	7581	42	122.4
6	8022	43	122.4
6	8572	44	122.4
6	9240	45	122.4
6	9911	46	122.4
6	10715	47	122.4
5	7581	42	76.822411504416
5	8022	43	67.098068376965
5	8572	44	57.881288566689
5	9240	45	48.36200154432
5	9911	46	38.605693171948
5	10715	47	29.272012629484
vector 63 Scenario.node[12].veinsmobility acceleration ETV
vector 64 Scenario.node[12].veinsmobility co2emission ETV
16	7581	42	2.5488376969095
16	8022	43	0.973
16	8572	44	3.1274838621821
16	9240	45	0.973
16	9911	46	4.6152037792092
16	10715	47	0.973
16	11519	48	1.761837245476
16	12190	49	0.973
16	12861	50	3.7807197655508
15	7581	42	0.3443737748079
15	8022	43	-0.78829520044383
15	8572	44	0.59661148828454
15	9240	45	-0.9309856868349
15	9911	46	1.1760176518699
15	10715	47	-0.29899328593165
15	11519	48	0.031968532525935
15	12190	49	-0.72859880975448
15	12861	50	0.85487228019629
14	7581	42	10.213846263075
14	8022	43	9.4255510626307
14	8572	44	10.022162550915
14	9240	45	9.0911768640803
14	9911	46	10.26719451595
14	10715	47	9.9682012300186
14	11519	48	10.000169762545
14	12190	49	9.2715709527901
14	12861	50	10.126443232986
11	7581	42	122.4
11	8022	43	122.4
11	8572	44	122.4
11	9240	45	122.4
11	9911	46	122.4
11	10715	47	122.4
11	11519	48	122.4
11	12190	49	122.4
11	12861	50	122.4
10	7581	42	106.27715048417
10	8022	43	97.210443615562
10	8572	44	87.569839110335
10	9240	45	78.824776336866
10	9911	46	68.948468583558
10	10715	47	59.359771014654
10	11519	48	49.740322000927
10	12190	49	40.821732999411
10	12861	50	31.080817926651
vector 65 Scenario.node[13].veinsmobility posx ETV
vector 66 Scenario.node[13].veinsmobility posy ETV
vector 67 Scenario.node[13].veinsmobility speed ETV
vector 68 Scenario.node[13].veinsmobility acceleration ETV
vector 69 Scenario.node[13].veinsmobility co2emission ETV
24	7581	42	0.973
24	8022	43	0.973
24	8572	44	3.3759064078541
24	9240	45	0.973
24	9911	46	2.1429012641922
24	10715	47	0.973
24	11519	48	4.0928703159148
24	12190	49	0.973
24	12861	50	3.03264271991
24	13532	51	0.973
24	14201	52	1.8684718430446
24	14872	53	2.2526365355906
24	15543	54	1.6049406213563
23	7581	42	-0.38140608107205
23	8022	43	-0.30584203107283
23	8572	44	0.73270676294342
23	9240	45	-0.76080300819594
23	9911	46	0.23457628507167
23	10715	47	-0.25917679704726
23	11519	48	1.0088997515617
23	12190	49	-0.95559828875121
23	12861	50	0.59839334359858
23	13532	51	-0.39205927990843
23	14201	52	0.1058155996725
23	14872	53	0.26163849942386
23	15543	54	-0.019349261070602
22	7581	42	9.2763958346273
22	8022	43	8.9705538035544
22	8572	44	9.7032605664979
22	9240	45	8.9424575583019
22	9911	46	9.1770338433736
22	10715	47	8.9178570463263
22	11519	48	9.926756797888
22	12190	49	8.9711585091368
22	12861	50	9.5695518527354
22	13532	51	9.177492572827
22	14201	52	9.2833081724995
22	14872	53	9.5449466719233
22	15543	54	9.5255974108527
19	7581	42	122.4
19	8022	43	122.4
19	8572	44	122.4
19	9240	45	122.4
19	9911	46	122.4
19	10715	47	122.4
19	11519	48	122.4
19	12190	49	122.4
19	12861	50	122.4
19	13532	51	122.4
19	14201	52	122.4
19	14872	53	122.4
19	15543	54	122.4
18	7581	42	133.9655258057
18	8022	43	125.33649380052
18	8572	44	116.00265022559
18	9240	45	107.40064480147
18	9911	46	98.572993746564
18	10715	47	89.994652257787
18	11519	48	80.445821272276
18	12190	49	71.816207583523
18	12861	50	62.610982240609
18	13532	51	53.782889920733
18	14201	52	44.85301055223
18	14872	53	35.671453635745
18	15543	54	26.508509326319
29	7581	42	0.973
29	8022	43	3.0914568551533
29	8572	44	0.973
29	9240	45	4.8606556384077
29	9911	46	6.3162802043461
29	10715	47	1.5923933222914
29	11519	48	2.802449907028
29	12190	49	0.973
29	12861	50	3.1652708798007
29	13532	51	2.3479798593848
29	14201	52	2.3703423830431
29	14872	53	2.1316518866911
29	15543	54	0.973
29	16214	55	0.973
29	16764	56	3.8027894565114
29	17314	57	1.4845073867612
29	17864	58	2.2388167974566
28	7581	42	-0.3592951894505
28	8022	43	0.50860900017433
28	8572	44	-3.7877275356902
28	9240	45	1.5646335236728
28	9911	46	1.8164076185087
28	10715	47	-0.050289917074091
28	11519	48	0.40229241421912
28	12190	49	-0.50588124766946
28	12861	50	0.53848178719636
28	13532	51	0.21571853943169
28	14201	52	0.21335550644435
28	14872	53	0.12074614011217
28	15543	54	-0.50737949258182
28	16214	55	-0.59862719222438
28	16764	56	0.76096534901299
28	17314	57	-0.10480015422218
28	17864	58	0.17226457048673
27	7581	42	10.391108994107
27	8022	43	10.899717994281
27	8572	44	7.1119904585909
27	9240	45	8.6766239822637
27	9911	46	10.493031600772
27	10715	47	10.442741683698
27	11519	48	10.845034097917
27	12190	49	10.339152850248
27	12861	50	10.877634637444
27	13532	51	11.093353176876
27	14201	52	11.30670868332
27	14872	53	11.427454823432
27	15543	54	10.920075330851
27	16214	55	10.321448138626
27	16764	56	11.082413487639
27	17314	57	10.977613333417
27	17864	58	11.149877903904
26	7581	42	100.00817886385
26	8022	43	107.07041757285
26	8572	44	111.6784793907
26	9240	45	117.42588138604
26	9911	46	122.33753475766
26	10715	47	122.4
26	11519	48	122.4
26	12190	49	122.4
26	12861	50	122.4
26	13532	51	122.4
26	14201	52	122.4
26	14872	53	122.4
26	15543	54	122.4
26	16214	55	122.4
26	16764	56	122.4
26	17314	57	122.4
26	17864	58	122.4
25	7581	42	186.73182113615
25	8022	43	179.66958242715
25	8572	44	175.0615206093
25	9240	45	169.07280118649
25	9911	46	159.99252461863
25	10715	47	149.94081550248
25	11519	48	139.50866734558
25	12190	49	129.56314081456
25	12861	50	119.09963326724
25	13532	51	108.42861989345
25	14201	52	97.55237376215
25	14872	53	86.559978468781
25	15543	54	76.055646005883
25	16214	55	66.12715014282
25	16764	56	55.466659968675
25	17314	57	44.906980057165
25	17864	58	34.18159393346
34	7581	42	2.2566274344042
34	8022	43	0.973
34	8572	44	3.3383009933197
34	9240	45	1.4385398367454
34	9911	46	2.2079647126412
34	10715	47	2.1099036917377
34	11519	48	0.973
34	12190	49	0.973
34	12861	50	5.7412600192344
34	13532	51	2.8335877869407
34	14201	52	0.973
34	14872	53	3.474035087857
34	15543	54	0.973
34	16214	55	1.9770174395669
34	16764	56	2.1906053068372
34	17314	57	0.973
34	17864	58	3.3289372096167
34	18414	59	1.3433561196414
34	18855	60	0.973
34	19296	61	1.2867782459797
34	19737	62	2.1517578533466
34	20178	63	1.7344608955351
34	20619	64	2.2988220736165
34	21060	65	0.973
34	21501	66	2.3191268076763
33	7581	42	0.31968943050597
33	8022	43	-0.45114984600805
33	8572	44	0.79436285241973
33	9240	45	-0.078227539942601
33	9911	46	0.26265372270718
33	10715	47	0.20701853267383
33	11519	48	-0.97910590888932
33	12190	49	-2.3995549765652
33	12861	50	2.130071399617
33	13532	51	0.58826690479216
33	14201	52	-0.39307912783697
33	14872	53	0.83512343906332
33	15543	54	-0.53151069129817
33	16214	55	0.1771930106217
33	16764	56	0.26115238531493
33	17314	57	-0.63977264324203
33	17864	58	0.76579179421533
33	18414	59	-0.12541380461771
33	18855	60	-0.35254189288244
33	19296	61	-0.14321364578791
33	19737	62	0.25779843877535
33	20178	63	0.05993149089627
33	20619	64	0.30230226696003
33	21060	65	-0.42055457825772
33	21501	66	0.31826518718153
32	7581	42	8.671372272214
32	8022	43	8.220222426206
32	8572	44	9.0145852786257
32	9240	45	8.9363577386831
32	9911	46	9.1990114613903
32	10715	47	9.4060299940641
32	11519	48	8.4269240851748
32	12190	49	6.0273691086096
32	12861	50	8.1574405082266
32	13532	51	8.7457074130188
32	14201	52	8.3526282851818
32	14872	53	9.1877517242451
32	15543	54	8.656241032947
32	16214	55	8.8334340435687
32	16764	56	9.0945864288836
32	17314	57	8.4548137856416
32	17864	58	9.2206055798569
32	18414	59	9.0951917752392
32	18855	60	8.7426498823568
32	19296	61	8.5994362365688
32	19737	62	8.8572346753442
32	20178	63	8.9171661662405
32	20619	64	9.2194684332005
32	21060	65	8.7989138549428
32	21501	66	9.1171790421243
31	7581	42	74.356636230091
31	8022	43	79.682753203527
31	8572	44	85.523560565128
31	9240	45	91.313682068528
31	9911	46	97.273984423262
31	10715	47	103.36842000013
31	11519	48	108.82846488417
31	12190	49	112.73376954019
31	12861	50	118.15549148795
31	13532	51	122.21625388709
31	14201	52	122.4
31	14872	53	122.4
31	15543	54	122.4
31	16214	55	122.4
31	16764	56	122.4
31	17314	57	122.4
31	17864	58	122.4
31	18414	59	122.4
31	18855	60	122.4
31	19296	61	122.4
31	19737	62	122.4
31	20178	63	122.4
31	20619	64	122.4
31	21060	65	122.4
31	21501	66	122.4
30	7581	42	212.38336376991
30	8022	43	207.05724679647
30	8572	44	201.21643943487
30	9240	45	195.42631793147
30	9911	46	189.46601557674
30	10715	47	183.37157999987
30	11519	48	177.91153511583
30	12190	49	174.00623045981
30	12861	50	168.23842961475
30	13532	51	160.61872992993
30	14201	52	152.56486751984
30	14872	53	143.72690662909
30	15543	54	135.40022105833
30	16214	55	126.90308846799
30	16764	56	118.15474593672
30	17314	57	110.0218189902
30	17864	58	101.15225503707
30	18414	59	92.403330205841
30	18855	60	83.993525494006
30	19296	61	75.721482079872
30	19737	62	67.20145498181
30	20178	63	58.623778070328
30	20619	64	49.755307971048
30	21060	65	41.29138133644
30	21501	66	32.521306324991
vector 70 Scenario.node[14].veinsmobility posx ETV
vector 71 Scenario.node[14].veinsmobility posy ETV
vector 72 Scenario.node[15].veinsmobility posx ETV
vector 73 Scenario.node[15].veinsmobility posy ETV
vector 74 Scenario.node[14].veinsmobility speed ETV
42	7581	42	3.6689010090887
42	8022	43	0.973
42	8572	44	0.973
42	9240	45	1.5287965247842
42	9911	46	2.5507461209427
42	10715	47	0.973
42	11519	48	3.5644042779503
42	12190	49	2.464612999032
42	12861	50	0.973
42	13532	51	0.973
42	14201	52	3.9660685285477
42	14872	53	5.673286660255
42	15543	54	2.8856093009364
42	16214	55	1.2499307477699
42	16764	56	0.973
42	17314	57	1.9500224776359
42	17864	58	2.0185789760701
42	18414	59	4.2983244098526
42	18855	60	0.973
42	19296	61	0.973
42	19737	62	0.973
42	20178	63	0.973
42	20619	64	4.1532279794183
42	21060	65	1.7879752910113
42	21501	66	0.973
42	21942	67	1.2318153010689
42	22379	68	3.5852208287968
41	7581	42	0.77213889474515
41	8022	43	-0.70797318927944
41	8572	44	-0.21374192659277
41	9240	45	-0.051697600190527
41	9911	46	0.36864886328112
41	10715	47	-0.50310225086287
41	11519	48	0.76623663278296
41	12190	49	0.297409762186
41	12861	50	-1.0764130555911
41	13532	51	-4.061814560066
41	14201	52	1.5227142807329
41	14872	53	1.9359241187572
41	15543	54	0.55863725713028
41	16214	55	-0.16858272575362
41	16764	56	-0.67713720059366
41	17314	57	0.17505690251252
41	17864	58	0.19695045793271
41	18414	59	1.0951272212984
41	18855	60	-0.71029187308383
41	19296	61	-0.21502965356686
41	19737	62	-0.37672971331665
41	20178	63	-0.55448573950779
41	20619	64	1.1389030886916
41	21060	65	0.070096079173814
41	21501	66	-0.35758782860685
41	21942	67	-0.17171320882061
41	22379	68	0.83629650865782
39	7581	42	10.468062757188
39	8022	43	9.7600895679083
39	8572	44	9.5463476413155
39	9240	45	9.494650041125
39	9911	46	9.8632989044061
39	10715	47	9.3601966535432
39	11519	48	10.126433286326
39	12190	49	10.423843048512
39	12861	50	9.3474299929211
39	13532	51	5.2856154328551
39	14201	52	6.808329713588
39	14872	53	8.7442538323452
39	15543	54	9.3028910894755
39	16214	55	9.1343083637219
39	16764	56	8.4571711631282
39	17314	57	8.6322280656407
39	17864	58	8.8291785235735
39	18414	59	9.9243057448718
39	18855	60	9.214013871788
39	19296	61	8.9989842182211
39	19737	62	8.6222545049045
39	20178	63	8.0677687653967
39	20619	64	9.2066718540883
39	21060	65	9.2767679332621
39	21501	66	8.9191801046553
39	21942	67	8.7474668958346
39	22379	68	9.5837634044925
36	7581	42	122.4
36	8022	43	122.4
36	8572	44	122.4
36	9240	45	122.4
36	9911	46	122.4
36	10715	47	122.4
36	11519	48	122.4
36	12190	49	122.4
36	12861	50	122.4
36	13532	51	122.4
36	14201	52	122.4
36	14872	53	122.4
36	15543	54	122.4
36	16214	55	122.4
36	16764	56	122.4
36	17314	57	122.4
36	17864	58	122.4
36	18414	59	122.4
36	18855	60	122.4
36	19296	61	122.4
36	19737	62	122.4
36	20178	63	122.4
36	20619	64	122.4
36	21060	65	122.4
36	21501	66	122.4
36	21942	67	122.4
36	22379	68	122.4
35	7581	42	254.05012924021
35	8022	43	245.10779574824
35	8572	44	236.36129566287
35	9240	45	227.66216165734
35	9911	46	218.62526629685
35	10715	47	210.04932040578
35	11519	48	200.77133756551
35	12190	49	191.22086365242
35	12861	50	182.6566147582
35	13532	51	177.81385838982
35	14201	52	171.10134573445
35	14872	53	162.35196330748
35	15543	54	153.29962817139
35	16214	55	144.51307597608
35	16764	56	136.37788140081
35	17314	57	128.07429458938
35	17864	58	119.58125550531
35	18414	59	110.03478225773
35	18855	60	101.17155905691
35	19296	61	92.515179023572
35	19737	62	84.221186065176
35	20178	63	76.460568782062
35	20619	64	67.604408077847
35	21060	65	58.68081995233
35	21501	66	50.101205775945
35	21942	67	41.686767441216
35	22379	68	32.467871600623
vector 75 Scenario.node[14].veinsmobility acceleration ETV
vector 76 Scenario.node[14].veinsmobility co2emission ETV
vector 77 Scenario.node[15].veinsmobility speed ETV
vector 78 Scenario.node[15].veinsmobility acceleration ETV
vector 79 Scenario.node[15].veinsmobility co2emission ETV
vector 80 Scenario.node[16].veinsmobility posx ETV
vector 81 Scenario.node[16].veinsmobility posy ETV
vector 82 Scenario.node[16].veinsmobility speed ETV
vector 83 Scenario.node[17].veinsmobility posx ETV
vector 84 Scenario.node[17].veinsmobility posy ETV
vector 85 Scenario.node[16].veinsmobility acceleration ETV
vector 86 Scenario.node[16].veinsmobility co2emission ETV
vector 87 Scenario.node[17].veinsmobility speed ETV
vector 88 Scenario.node[17].veinsmobility acceleration ETV
vector 89 Scenario.node[17].veinsmobility co2emission ETV
vector 90 Scenario.node[18].veinsmobility posx ETV
vector 91 Scenario.node[18].veinsmobility posy ETV
vector 92 Scenario.node[19].veinsmobility posx ETV
vector 93 Scenario.node[19].veinsmobility posy ETV
vector 94 Scenario.node[18].veinsmobility speed ETV
vector 95 Scenario.node[19].veinsmobility speed ETV
44	7581	42	2.3979904988587
44	8022	43	0.973
44	8572	44	1.4357078725526
44	9240	45	2.5131966110754
44	9911	46	1.499188174477
44	10715	47	1.5133015842137
44	11519	48	0.973
44	12190	49	1.7247147812556
44	12861	50	0.973
44	13532	51	0.973
44	14201	52	1.4067482882747
44	14872	53	3.0724406437415
44	15543	54	1.4138103937585
44	16214	55	0.973
44	16764	56	4.5377689318017
44	17314	57	0.973
44	17864	58	0.973
44	18414	59	1.8601993219172
44	18855	60	1.8179685586572
44	19296	61	1.3545223693433
44	19737	62	0.973
44	20178	63	0.973
44	20619	64	1.8058384919238
44	21060	65	1.7215260931081
44	21501	66	1.9729188097359
44	21942	67	0.973
44	22379	68	0.973
44	22926	69	2.9617881786571
44	23367	70	0.973
44	23808	71	1.4926740530431
44	24356	72	1.4723801563724
44	24906	73	3.2625223208658
44	25575	74	0.973
44	26246	75	1.2418449673872
44	26917	76	2.058021618861
44	27864	77	2.4741408645387
43	7581	42	0.48539359108545
43	8022	43	-0.51455716565251
43	8572	44	-0.026328651909716
43	9240	45	0.54791409664322
43	9911	46	-0.0082372752716768
43	10715	47	-0.00046773841604519
43	11519	48	-0.78929264945909
43	12190	49	0.15042571206577
43	12861	50	-0.23671331610531
43	13532	51	-0.30319996874314
43	14201	52	-0.021794749493711
43	14872	53	0.9021347384667
43	15543	54	-0.04522482699249
43	16214	55	-1.2914221855669
43	16764	56	1.6558287269992
43	17314	57	-0.47999533796683
43	17864	58	-0.2598815694917
43	18414	59	0.22193699739873
43	18855	60	0.1854237915948
43	19296	61	-0.078184388391674
43	19737	62	-0.45366495079361
43	20178	63	-0.24322888823226
43	20619	64	0.21489570247941
43	21060	65	0.15322197100613
43	21501	66	0.28347378985491
43	21942	67	-0.48949738484807
43	22379	68	-0.22585265839007
43	22926	69	0.84060033869464
43	23367	70	-0.72758256371599
43	23808	71	0.026169902994297
43	24356	72	0.012784516485408
43	24906	73	0.96585877079051
43	25575	74	-0.76290968286339
43	26246	75	-0.1343741593184
43	26917	76	0.34571551578119
43	27864	77	0.53283899691887
40	7581	42	7.554549576501
40	8022	43	7.0399924108485
40	8572	44	7.0136637589387
40	9240	45	7.561577855582
40	9911	46	7.5533405803103
40	10715	47	7.5528728418942
40	11519	48	6.7635801924351
40	12190	49	6.9140059045009
40	12861	50	6.6772925883956
40	13532	51	6.3740926196525
40	14201	52	6.3522978701588
40	14872	53	7.2544326086255
40	15543	54	7.209207781633
40	16214	55	5.9177855960661
40	16764	56	7.5736143230652
40	17314	57	7.0936189850984
40	17864	58	6.8337374156067
40	18414	59	7.0556744130054
40	18855	60	7.2410982046002
40	19296	61	7.1629138162086
40	19737	62	6.7092488654149
40	20178	63	6.4660199771827
40	20619	64	6.6809156796621
40	21060	65	6.8341376506682
40	21501	66	7.1176114405231
40	21942	67	6.6281140556751
40	22379	68	6.402261397285
40	22926	69	7.2428617359796
40	23367	70	6.5152791722636
40	23808	71	6.5414490752579
40	24356	72	6.5542335917434
40	24906	73	7.5200923625339
40	25575	74	6.7571826796705
40	26246	75	6.6228085203521
40	26917	76	6.9685240361333
40	27864	77	7.5013630330521
38	7581	42	54.55922307718
38	8022	43	59.120635302809
38	8572	44	63.664988442619
38	9240	45	68.564350780332
38	9911	46	73.458375952046
38	10715	47	78.352098062676
38	11519	48	82.734414914503
38	12190	49	87.214196883055
38	12861	50	91.540605530865
38	13532	51	95.670562256069
38	14201	52	99.78639754037
38	14872	53	104.486751697
38	15543	54	109.15780339609
38	16214	55	112.99210576337
38	16764	56	118.04585708584
38	17314	57	121.8083458004
38	17864	58	122.4
38	18414	59	122.4
38	18855	60	122.4
38	19296	61	122.4
38	19737	62	122.4
38	20178	63	122.4
38	20619	64	122.4
38	21060	65	122.4
38	21501	66	122.4
38	21942	67	122.4
38	22379	68	122.4
38	22926	69	122.4
38	23367	70	122.4
38	23808	71	122.4
38	24356	72	122.4
38	24906	73	122.4
38	25575	74	122.4
38	26246	75	122.4
38	26917	76	122.4
38	27864	77	122.4
37	7581	42	232.18077692282
37	8022	43	227.61936469719
37	8572	44	223.07501155738
37	9240	45	218.17564921967
37	9911	46	213.28162404795
37	10715	47	208.38790193732
37	11519	48	204.0055850855
37	12190	49	199.52580311695
37	12861	50	195.19939446914
37	13532	51	191.06943774393
37	14201	52	186.95360245963
37	14872	53	182.253248303
37	15543	54	177.58219660391
37	16214	55	173.74789423663
37	16764	56	168.38760429304
37	17314	57	162.40261687403
37	17864	58	155.79319072892
37	18414	59	149.00613592036
37	18855	60	142.04071666883
37	19296	61	135.15050521434
37	19737	62	128.69668703787
37	20178	63	122.47683767839
37	20619	64	116.05027400282
37	21060	65	109.47632173557
37	21501	66	102.6296879306
37	21942	67	96.25391564576
37	22379	68	90.095397485957
37	22926	69	83.128281843211
37	23367	70	76.861048656577
37	23808	71	70.568641892542
37	24356	72	64.263937336827
37	24906	73	57.030145633524
37	25575	74	50.530218551587
37	26246	75	44.159549812759
37	26917	76	37.456327441716
37	27864	77	30.240552015565
vector 96 Scenario.node[18].veinsmobility acceleration ETV
vector 97 Scenario.node[18].veinsmobility co2emission ETV
vector 98 Scenario.node[19].veinsmobility acceleration ETV
vector 99 Scenario.node[19].veinsmobility co2emission ETV
49	7581	42	5.2516551936592
49	8022	43	2.5914009532881
49	8572	44	2.1776059664808
49	9240	45	0.973
49	9911	46	0.973
49	10715	47	2.6668421435874
49	11519	48	0.973
49	12190	49	0.973
49	12861	50	3.6425366664512
49	13532	51	0.973
49	14201	52	2.8830039216547
49	14872	53	0.973
49	15543	54	1.3057743651457
49	16214	55	3.5394566762969
49	16764	56	0.973
49	17314	57	3.8400261714252
49	17864	58	2.5635769251228
49	18414	59	0.973
49	18855	60	2.6073179240689
49	19296	61	0.973
49	19737	62	3.0653778399177
49	20178	63	0.973
49	20619	64	2.396104562639
49	21060	65	0.973
49	21501	66	3.4658181171704
49	21942	67	0.973
49	22379	68	0.973
49	22926	69	0.973
49	23367	70	2.3683510143429
49	23808	71	1.3632219112957
49	24356	72	2.6390263169104
49	24906	73	0.973
49	25575	74	4.7264447233645
49	26246	75	0.973
49	26917	76	0.973
49	27864	77	3.2818811676928
49	28813	78	1.8471472461851
49	29617	79	6.9382682435486
48	7581	42	1.8819010287756
48	8022	43	0.48292644824953
48	8572	44	0.26696054638031
48	9240	45	-0.59448142057723
48	9911	46	-0.66351228025623
48	10715	47	0.56112359132445
48	11519	48	-1.4965976548553
48	12190	49	-0.26171335760431
48	12861	50	1.1589264138559
48	13532	51	-1.3168078942712
48	14201	52	0.81568323722934
48	14872	53	-0.64036498178083
48	15543	54	-0.088389953034031
48	16214	55	1.1223289635177
48	16764	56	-1.8018379930541
48	17314	57	1.3807963728827
48	17864	58	0.56631564765446
48	18414	59	-0.94144646652695
48	18855	60	0.62674627927271
48	19296	61	-0.64973308160365
48	19737	62	0.85473976856831
48	20178	63	-1.1273666818869
48	20619	64	0.5483770419955
48	21060	65	-0.46475455196949
48	21501	66	1.0704887548955
48	21942	67	-0.76052603399009
48	22379	68	-0.28630341543397
48	22926	69	-0.37726001162338
48	23367	70	0.56189364992187
48	23808	71	-0.058869119530487
48	24356	72	0.64962711718077
48	24906	73	-1.1560038800833
48	25575	74	1.6932259630404
48	26246	75	-0.68558428740403
48	26917	76	-1.1193758011972
48	27864	77	1.0539844749524
48	28813	78	0.19984734978202
48	29617	79	2.2919802888995
47	7581	42	8.1541418905836
47	8022	43	8.6370683388331
47	8572	44	8.9040288852134
47	9240	45	8.3095474646362
47	9911	46	7.6460351843799
47	10715	47	8.2071587757044
47	11519	48	6.7105611208491
47	12190	49	6.4488477632448
47	12861	50	7.6077741771007
47	13532	51	6.2909662828295
47	14201	52	7.1066495200589
47	14872	53	6.466284538278
47	15543	54	6.377894585244
47	16214	55	7.5002235487617
47	16764	56	5.6983855557075
47	17314	57	7.0791819285903
47	17864	58	7.6454975762447
47	18414	59	6.7040511097178
47	18855	60	7.3307973889905
47	19296	61	6.6810643073868
47	19737	62	7.5358040759551
47	20178	63	6.4084373940682
47	20619	64	6.9568144360637
47	21060	65	6.4920598840943
47	21501	66	7.5625486389898
47	21942	67	6.8020226049997
47	22379	68	6.5157191895657
47	22926	69	6.1384591779423
47	23367	70	6.7003528278642
47	23808	71	6.6414837083337
47	24356	72	7.2911108255145
47	24906	73	6.1351069454312
47	25575	74	7.8283329084715
47	26246	75	7.1427486210675
47	26917	76	6.0233728198703
47	27864	77	7.0773572948226
47	28813	78	7.2772046446047
47	29617	79	9.5691849335042
46	7581	42	41.143420496899
46	8022	43	46.73962384701
46	8572	44	52.508798562565
46	9240	45	57.892791780545
46	9911	46	62.846876434653
46	10715	47	68.164529095682
46	11519	48	72.512493376198
46	12190	49	76.690886094798
46	12861	50	81.620180349118
46	13532	51	85.696277145657
46	14201	52	90.300878416832
46	14872	53	94.490568920169
46	15543	54	98.622989047508
46	16214	55	103.48259817685
46	16764	56	107.17474498941
46	17314	57	111.76154922329
46	17864	58	116.81385017976
46	18414	59	120.81413878217
46	18855	60	122.4
46	19296	61	122.4
46	19737	62	122.4
46	20178	63	122.4
46	20619	64	122.4
46	21060	65	122.4
46	21501	66	122.4
46	21942	67	122.4
46	22379	68	122.4
46	22926	69	122.4
46	23367	70	122.4
46	23808	71	122.4
46	24356	72	122.4
46	24906	73	122.4
46	25575	74	122.4
46	26246	75	122.4
46	26917	76	122.4
46	27864	77	122.4
46	28813	78	122.4
46	29617	79	122.4
45	7581	42	245.5965795031
45	8022	43	240.00037615299
45	8572	44	234.23120143743
45	9240	45	228.84720821946
45	9911	46	223.89312356535
45	10715	47	218.57547090432
45	11519	48	214.2275066238
45	12190	49	210.0491139052
45	12861	50	205.11981965088
45	13532	51	201.04372285434
45	14201	52	196.43912158317
45	14872	53	192.24943107983
45	15543	54	188.11701095249
45	16214	55	183.25740182315
45	16764	56	179.56525501059
45	17314	57	174.97845077671
45	17864	58	169.73672977576
45	18414	59	164.38426759744
45	18855	60	157.44755492933
45	19296	61	151.02084828451
45	19737	62	143.77194303516
45	20178	63	137.60748400759
45	20619	64	130.91552543541
45	21060	65	124.67062754548
45	21501	66	117.39599593682
45	21942	67	110.85293604956
45	22379	68	104.58527959772
45	22926	69	98.680520329905
45	23367	70	92.23525950613
45	23808	71	85.846626570406
45	24356	72	78.833098749892
45	24906	73	72.931564090312
45	25575	74	65.401266998998
45	26246	75	58.530453021862
45	26917	76	52.736398610062
45	27864	77	45.928486417964
45	28813	78	38.928335350186
45	29617	79	29.723462957364
56	9240	45	3.4548220566628
56	9911	46	4.7867564880333
56	10715	47	6.1771153369652
56	11519	48	4.8127336122239
56	12190	49	3.1315886168625
56	12861	50	2.9625693382278
56	13532	51	0.973
56	14201	52	2.9232944375374
56	14872	53	0.973
56	15543	54	0.973
56	16214	55	0.973
56	16764	56	3.163677734619
56	17314	57	0.973
56	17864	58	3.0445231594235
56	18414	59	0.973
56	18855	60	0.973
56	19296	61	5.1778827762286
56	19737	62	2.850155897158
56	20178	63	2.4317631965122
56	20619	64	0.973
56	21060	65	1.6736794196317
56	21501	66	0.973
56	21942	67	3.4979375890123
56	22379	68	0.973
56	22926	69	0.973
56	23367	70	1.7211120447086
56	23808	71	0.973
56	24356	72	1.321018600854
56	24906	73	2.0855027785419
56	25575	74	0.973
56	26246	75	3.3016578388932
56	26917	76	0.973
56	27864	77	0.973
56	28813	78	3.067605304749
56	29617	79	4.2325099629678
56	30421	80	4.751435998776
56	31092	81	4.5579107974637
55	9240	45	2.1259996596491
55	9911	46	2.1848219760461
55	10715	47	2.2226572368294
55	11519	48	1.3152661697008
55	12190	49	0.56036338574103
55	12861	50	0.45861567452084
55	13532	51	-0.52292620562948
55	14201	52	0.44900078314822
55	14872	53	-0.95103272174597
55	15543	54	-1.0946403533784
55	16214	55	-1.4253279295305
55	16764	56	0.81552739313856
55	17314	57	-1.5791890309769
55	17864	58	0.85473090197935
55	18414	59	-0.48833712182322
55	18855	60	-1.8958723772052
55	19296	61	2.124628780596
55	19737	62	0.69111331139095
55	20178	63	0.43228946136698
55	20619	64	-1.6829514872543
55	21060	65	0.12789814557046
55	21501	66	-0.38339122845278
55	21942	67	1.1019668084595
55	22379	68	-0.71997882387239
55	22926	69	-0.15084447940398
55	23367	70	0.15671120932998
55	23808	71	-0.18208218730417
55	24356	72	-0.08185594060407
55	24906	73	0.37019879860132
55	25575	74	-0.56341653052821
55	26246	75	1.019220271422
55	26917	76	-0.33014831975128
55	27864	77	-0.96002836682149
55	28813	78	0.94363152193482
55	29617	79	1.3309108144353
55	30421	80	1.3301796897216
55	31092	81	1.0881659176168
54	8572	44	2.0447021616157
54	9240	45	4.1707018212648
54	9911	46	6.3555237973109
54	10715	47	8.5781810341403
54	11519	48	9.8934472038411
54	12190	49	10.453810589582
54	12861	50	10.912426264103
54	13532	51	10.389500058473
54	14201	52	10.838500841622
54	14872	53	9.8874681198757
54	15543	54	8.7928277664973
54	16214	55	7.3674998369668
54	16764	56	8.1830272301054
54	17314	57	6.6038381991285
54	17864	58	7.4585691011078
54	18414	59	6.9702319792846
54	18855	60	5.0743596020794
54	19296	61	7.1989883826754
54	19737	62	7.8901016940663
54	20178	63	8.3223911554333
54	20619	64	6.639439668179
54	21060	65	6.7673378137495
54	21501	66	6.3839465852967
54	21942	67	7.4859133937562
54	22379	68	6.7659345698838
54	22926	69	6.6150900904798
54	23367	70	6.7718012998098
54	23808	71	6.5897191125056
54	24356	72	6.5078631719016
54	24906	73	6.8780619705029
54	25575	74	6.3146454399747
54	26246	75	7.3338657113967
54	26917	76	7.0037173916454
54	27864	77	6.0436890248239
54	28813	78	6.9873205467587
54	29617	79	8.318231361194
54	30421	80	9.6484110509156
54	31092	81	10.736576968532
51	8022	43	27.174435714286
51	8572	44	28.499256664858
51	9240	45	31.201573537765
51	9911	46	35.319498992437
51	10715	47	40.877547575343
51	11519	48	47.287794688632
51	12190	49	54.061117249925
51	12861	50	61.131590010044
51	13532	51	67.863243940788
51	14201	52	74.885818307527
51	14872	53	81.292191401484
51	15543	54	86.989315735048
51	16214	55	91.762929379414
51	16764	56	97.064946522578
51	17314	57	101.34376197288
51	17864	58	106.17638199547
51	18414	59	110.69259444433
51	18855	60	113.98041701222
51	19296	61	118.7273668227
51	19737	62	122.23716979383
51	20178	63	122.4
51	20619	64	122.4
51	21060	65	122.4
51	21501	66	122.4
51	21942	67	122.4
51	22379	68	122.4
51	22926	69	122.4
51	23367	70	122.4
51	23808	71	122.4
51	24356	72	122.4
51	24906	73	122.4
51	25575	74	122.4
51	26246	75	122.4
51	26917	76	122.4
51	27864	77	122.4
51	28813	78	122.4
51	29617	79	122.4
51	30421	80	122.4
51	31092	81	122.4
50	8022	43	259.56556428571
50	8572	44	258.24074333514
50	9240	45	255.53842646224
50	9911	46	251.42050100756
50	10715	47	245.86245242466
50	11519	48	239.45220531137
50	12190	49	232.67888275008
50	12861	50	225.60840998996
50	13532	51	218.87675605921
50	14201	52	211.85418169247
50	14872	53	205.44780859852
50	15543	54	199.75068426495
50	16214	55	194.97707062059
50	16764	56	189.67505347742
50	17314	57	185.39623802712
50	17864	58	180.56361800453
50	18414	59	176.04740555567
50	18855	60	172.75958298778
50	19296	61	167.46030415927
50	19737	62	160.51073555431
50	20178	63	152.48814813335
50	20619	64	146.10148141825
50	21060	65	139.59178582269
50	21501	66	133.45088520382
50	21942	67	126.24997122713
50	22379	68	119.74162545194
50	22926	69	113.37838129134
50	23367	70	106.86439214101
50	23808	71	100.525553049
50	24356	72	94.265453525003
50	24906	73	87.64924919952
50	25575	74	81.575011332368
50	26246	75	74.520356365555
50	26917	76	67.78328050032
50	27864	77	61.969683350512
50	28813	78	55.248380078855
50	29617	79	47.24683566877
50	30421	80	37.965753410007
50	31092	81	27.637933264633
vector 100 Scenario.node[20].veinsmobility posx ETV
vector 101 Scenario.node[20].veinsmobility posy ETV
61	9911	46	3.2382887898965
61	10715	47	4.8795895856851
61	11519	48	5.3762281026164
61	12190	49	2.8833807166271
61	12861	50	1.3942046982109
61	13532	51	2.6161499711655
61	14201	52	0.973
61	14872	53	4.0111346278256
61	15543	54	0.973
61	16214	55	0.973
61	16764	56	3.1007238477871
61	17314	57	0.973
61	17864	58	0.973
61	18414	59	1.3389975004215
61	18855	60	3.6073875350402
61	19296	61	0.973
61	19737	62	4.0282789142736
61	20178	63	4.3558537350098
61	20619	64	0.973
61	21060	65	0.973
61	21501	66	3.8004411389634
61	21942	67	0.973
61	22379	68	3.4318641582316
61	22926	69	1.78852940204
61	23367	70	0.973
61	23808	71	2.7195770838433
61	24356	72	1.8362413960606
61	24906	73	0.973
61	25575	74	2.4485122392851
61	26246	75	0.973
61	26917	76	2.3344750731761
61	27864	77	1.3716456729063
61	28813	78	0.973
61	29617	79	4.3377276821233
61	30421	80	3.4742218575917
61	31092	81	1.7979024633075
61	31763	82	1.7407790851878
61	32313	83	2.0468950007281
60	9911	46	1.8044736620272
60	10715	47	2.1685530676972
60	11519	48	1.8724571230588
60	12190	49	0.58491700182691
60	12861	50	-0.098387772310526
60	13532	51	0.43462516381405
60	14201	52	-1.0090437405976
60	14872	53	1.0479906769237
60	15543	54	-0.51101847302634
60	16214	55	-0.2421896067448
60	16764	56	0.6556329005165
60	17314	57	-0.55332160147373
60	17864	58	-0.23939301425126
60	18414	59	-0.113818090735
60	18855	60	0.88465589773841
60	19296	61	-4.2212271213985
60	19737	62	1.6030559406616
60	20178	63	1.4391689548036
60	20619	64	-2.7795424831745
60	21060	65	-0.28948546872324
60	21501	66	1.4960656980712
60	21942	67	-1.0442120033685
60	22379	68	1.221443730388
60	22926	69	0.19049112212621
60	23367	70	-0.71508585822182
60	23808	71	0.74685557988766
60	24356	72	0.2035190152182
60	24906	73	-0.5781433502007
60	25575	74	0.56209290588603
60	26246	75	-0.7949065371889
60	26917	76	0.52515794425237
60	27864	77	-0.057613646809653
60	28813	78	-0.87633633578089
60	29617	79	1.5706745592673
60	30421	80	0.93894648300812
60	31092	81	0.10708317792436
60	31763	82	0.076042157923803
60	32313	83	0.21155056543648
57	9240	45	2.5846755577717
57	9911	46	4.3891492197989
57	10715	47	6.5577022874961
57	11519	48	8.4301594105549
57	12190	49	9.0150764123818
57	12861	50	8.9166886400713
57	13532	51	9.3513138038854
57	14201	52	8.3422700632878
57	14872	53	9.3902607402115
57	15543	54	8.8792422671851
57	16214	55	8.6370526604403
57	16764	56	9.2926855609568
57	17314	57	8.7393639594831
57	17864	58	8.4999709452318
57	18414	59	8.3861528544968
57	18855	60	9.2708087522353
57	19296	61	5.0495816308368
57	19737	62	6.6526375714983
57	20178	63	8.0918065263019
57	20619	64	5.3122640431275
57	21060	65	5.0227785744042
57	21501	66	6.5188442724755
57	21942	67	5.474632269107
57	22379	68	6.696075999495
57	22926	69	6.8865671216212
57	23367	70	6.1714812633994
57	23808	71	6.918336843287
57	24356	72	7.1218558585052
57	24906	73	6.5437125083045
57	25575	74	7.1058054141906
57	26246	75	6.3108988770017
57	26917	76	6.836056821254
57	27864	77	6.7784431744444
57	28813	78	5.9021068386635
57	29617	79	7.4727813979308
57	30421	80	8.4117278809389
57	31092	81	8.5188110588633
57	31763	82	8.5948532167871
57	32313	83	8.8064037822236
53	8572	44	122.4
53	9240	45	122.4
53	9911	46	122.4
53	10715	47	122.4
53	11519	48	122.4
53	12190	49	122.4
53	12861	50	122.4
53	13532	51	122.4
53	14201	52	122.4
53	14872	53	122.4
53	15543	54	122.4
53	16214	55	122.4
53	16764	56	122.4
53	17314	57	122.4
53	17864	58	122.4
53	18414	59	122.4
53	18855	60	122.4
53	19296	61	122.4
53	19737	62	122.4
53	20178	63	122.4
53	20619	64	122.4
53	21060	65	122.4
53	21501	66	122.4
53	21942	67	122.4
53	22379	68	122.4
53	22926	69	122.4
53	23367	70	122.4
53	23808	71	122.4
53	24356	72	122.4
53	24906	73	122.4
53	25575	74	122.4
53	26246	75	122.4
53	26917	76	122.4
53	27864	77	122.4
53	28813	78	122.4
53	29617	79	122.4
53	30421	80	122.4
53	31092	81	122.4
53	31763	82	122.4
53	32313	83	122.4
52	8572	44	300.32730714286
52	9240	45	297.95919047289
52	9911	46	293.93778925558
52	10715	47	287.92952873831
52	11519	48	280.20569625551
52	12190	49	271.94595445968
52	12861	50	263.77635694638
52	13532	51	255.20854964907
52	14201	52	247.5652426418
52	14872	53	238.96175160503
52	15543	54	230.82646299352
52	16214	55	222.91307195956
52	16764	56	214.39898069596
52	17314	57	206.39185058822
52	17864	58	198.60405578005
52	18414	59	190.92054273257
52	18855	60	182.42649531365
52	19296	61	177.7999964866
52	19737	62	171.24199077517
52	20178	63	163.14543832129
52	20619	64	157.90114523057
52	21060	65	153.06959101189
52	21501	66	146.79892845351
52	21942	67	141.53272325579
52	22379	68	135.09157643542
52	22926	69	128.46719076207
52	23367	70	122.53066660677
52	23808	71	115.87572073044
52	24356	72	109.02500409855
52	24906	73	102.7304200736
52	25575	74	95.895142822677
52	26246	75	89.824508881493
52	26917	76	83.248710509219
52	27864	77	76.728332349916
52	28813	78	71.050927150182
52	29617	79	63.862645215472
52	30421	80	55.771163831715
52	31092	81	47.576676079593
52	31763	82	39.30904120313
52	32313	83	30.837909793473
vector 102 Scenario.node[20].veinsmobility speed ETV
vector 103 Scenario.node[20].veinsmobility acceleration ETV
vector 104 Scenario.node[20].veinsmobility co2emission ETV
64	11519	48	2.3785540133901
64	12190	49	4.751463387611
64	12861	50	5.2049258049586
64	13532	51	5.4164289861612
64	14201	52	0.973
64	14872	53	0.973
64	15543	54	3.1156254820631
64	16214	55	2.3097396833864
64	16764	56	0.973
64	17314	57	0.973
64	17864	58	2.1412567940229
64	18414	59	2.9101165889808
64	18855	60	0.973
64	19296	61	3.1310527257953
64	19737	62	0.973
64	20178	63	1.4326334286735
64	20619	64	0.973
64	21060	65	4.1294571409028
64	21501	66	0.973
64	21942	67	5.8841182204678
64	22379	68	0.973
64	22926	69	2.5115319864027
64	23367	70	1.2306058250285
64	23808	71	0.973
64	24356	72	5.3923026280725
64	24906	73	0.973
64	25575	74	0.973
64	26246	75	2.8370149437365
64	26917	76	0.973
64	27864	77	2.3745853469455
64	28813	78	2.0062990916122
64	29617	79	0.973
64	30421	80	5.8593867957782
64	31092	81	2.3305576008786
64	31763	82	2.5303546494711
64	32313	83	2.4148175858062
64	32984	84	1.271243534981
64	33534	85	0.973
63	11519	48	1.5695922015235
63	12190	49	2.5341154913651
63	12861	50	2.0328867932782
63	13532	51	1.7015919783227
63	14201	52	-0.91995857427828
63	14872	53	-0.23472784957849
63	15543	54	0.71601337366737
63	16214	55	0.31428627911955
63	16764	56	-0.84811587086879
63	17314	57	-0.19042072454467
63	17864	58	0.2849488685606
63	18414	59	0.60252243625
63	18855	60	-0.43791561962571
63	19296	61	0.67866139451507
63	19737	62	-0.26113967336714
63	20178	63	-0.079208790338237
63	20619	64	-4.4658954837127
63	21060	65	1.8053587995702
63	21501	66	-0.57994821411746
63	21942	67	2.2822120158371
63	22379	68	-1.7320573108086
63	22926	69	0.63627228663294
63	23367	70	-0.14212450152966
63	23808	71	-1.1164186201676
63	24356	72	2.1002130709047
63	24906	73	-0.63374714689941
63	25575	74	-0.51843744150437
63	26246	75	0.76616214995935
63	26917	76	-1.1356910316729
63	27864	77	0.56646973716609
63	28813	78	0.31183519244685
63	29617	79	-1.7800263936165
63	30421	80	2.3714867994655
63	31092	81	0.40788731995157
63	31763	82	0.46784185791473
63	32313	83	0.38122375741635
63	32984	84	-0.15231328315567
63	33534	85	-0.61014527205844
62	10715	47	1.3989951908123
62	11519	48	2.9685873923358
62	12190	49	5.5027028837008
62	12861	50	7.535589676979
62	13532	51	9.2371816553017
62	14201	52	8.3172230810234
62	14872	53	8.0824952314449
62	15543	54	8.7985086051123
62	16214	55	9.1127948842319
62	16764	56	8.2646790133631
62	17314	57	8.0742582888184
62	17864	58	8.359207157379
62	18414	59	8.961729593629
62	18855	60	8.5238139740033
62	19296	61	9.2024753685184
62	19737	62	8.9413356951512
62	20178	63	8.862126904813
62	20619	64	4.3962314211003
62	21060	65	6.2015902206706
62	21501	66	5.6216420065531
62	21942	67	7.9038540223902
62	22379	68	6.1717967115815
62	22926	69	6.8080689982145
62	23367	70	6.6659444966848
62	23808	71	5.5495258765173
62	24356	72	7.649738947422
62	24906	73	7.0159918005226
62	25575	74	6.4975543590182
62	26246	75	7.2637165089776
62	26917	76	6.1280254773046
62	27864	77	6.6944952144707
62	28813	78	7.0063304069176
62	29617	79	5.2263040133011
62	30421	80	7.5977908127666
62	31092	81	8.0056781327182
62	31763	82	8.4735199906329
62	32313	83	8.8547437480492
62	32984	84	8.7024304648936
62	33534	85	8.0922851928351
59	9911	46	27.174435714286
59	10715	47	28.080884669704
59	11519	48	30.004317257981
59	12190	49	33.569675676413
59	12861	50	38.45219953069
59	13532	51	44.437233444636
59	14201	52	49.826199913776
59	14872	53	55.063079502665
59	15543	54	60.763884613877
59	16214	55	66.668324784939
59	16764	56	72.023246451383
59	17314	57	77.254789089802
59	17864	58	82.670958241558
59	18414	59	88.477518894688
59	18855	60	94.000341505987
59	19296	61	99.962888225117
59	19737	62	105.75623508874
59	20178	63	111.49826031399
59	20619	64	114.34670425834
59	21060	65	118.47146898358
59	21501	66	121.47049725846
59	21942	67	122.4
59	22379	68	122.4
59	22926	69	122.4
59	23367	70	122.4
59	23808	71	122.4
59	24356	72	122.4
59	24906	73	122.4
59	25575	74	122.4
59	26246	75	122.4
59	26917	76	122.4
59	27864	77	122.4
59	28813	78	122.4
59	29617	79	122.4
59	30421	80	122.4
59	31092	81	122.4
59	31763	82	122.4
59	32313	83	122.4
59	32984	84	122.4
59	33534	85	122.4
58	9911	46	259.56556428571
58	10715	47	258.6591153303
58	11519	48	256.73568274202
58	12190	49	253.17032432359
58	12861	50	248.28780046931
58	13532	51	242.30276655536
58	14201	52	236.91380008622
58	14872	53	231.67692049734
58	15543	54	225.97611538612
58	16214	55	220.07167521506
58	16764	56	214.71675354862
58	17314	57	209.4852109102
58	17864	58	204.06904175844
58	18414	59	198.26248110531
58	18855	60	192.73965849401
58	19296	61	186.77711177488
58	19737	62	180.98376491126
58	20178	63	175.24173968601
58	20619	64	172.39329574166
58	21060	65	167.80849302234
58	21501	66	163.07601566851
58	21942	67	155.48847508042
58	22379	68	149.5516474865
58	22926	69	143.00277140086
58	23367	70	136.59060893394
58	23808	71	131.25236143544
58	24356	72	123.89385897794
58	24906	73	117.14497600811
58	25575	74	110.89479282576
58	26246	75	103.90761638102
58	26917	76	98.012893587956
58	27864	77	91.573267369864
58	28813	78	84.833677970582
58	29617	79	79.806346817216
58	30421	80	72.497814754678
58	31092	81	64.796924225155
58	31763	82	56.646003245594
58	32313	83	48.128372241667
58	32984	84	39.757255736616
58	33534	85	31.973055401479
69	14872	53	2.5445634763395
69	15543	54	3.3134071128822
69	16214	55	3.9599019028673
69	16764	56	7.1624877821245
69	17314	57	2.1528018442521
69	17864	58	0.973
69	18414	59	2.8076693520052
69	18855	60	0.973
69	19296	61	3.1174340600286
69	19737	62	2.8500741976286
69	20178	63	1.8442425658565
69	20619	64	0.973
69	21060	65	2.5230980806943
69	21501	66	1.8232605353172
69	21942	67	0.973
69	22379	68	0.973
69	22926	69	4.946944272804
69	23367	70	3.7855429884744
69	23808	71	3.7071251762483
69	24356	72	0.973
69	24906	73	3.3310440527685
69	25575	74	0.973
69	26246	75	0.973
69	26917	76	2.362907344468
69	27864	77	0.973
69	28813	78	2.5478746767122
69	29617	79	3.6591063477111
69	30421	80	0.973
69	31092	81	5.7935069944565
69	31763	82	4.9089464798289
69	32313	83	0.973
69	32984	84	2.3006590005637
69	33534	85	0.973
69	34084	86	0.973
69	34525	87	3.4610032054306
68	14872	53	1.6449319566833
68	15543	54	1.6632648055442
68	16214	55	1.6061615671497
68	16764	56	2.5477489509387
68	17314	57	0.23366406952197
68	17864	58	-0.35279153927695
68	18414	59	0.5127533197403
68	18855	60	-0.83133188497741
68	19296	61	0.66600290150382
68	19737	62	0.50249979177024
68	20178	63	0.07235622003209
68	20619	64	-0.96239793135319
68	21060	65	0.39895738456398
68	21501	66	0.082504450832495
68	21942	67	-0.30360174323432
68	22379	68	-3.3899264783026
68	22926	69	1.8863195072627
68	23367	70	1.0605295890137
68	23808	71	0.89830841040239
68	24356	72	-0.67311337769414
68	24906	73	0.72823439922895
68	25575	74	-1.4325138155159
68	26246	75	-1.2688730751479
68	26917	76	0.48640630982875
68	27864	77	-1.6533871111248
68	28813	78	0.7146210452415
68	29617	79	1.172449955722
68	30421	80	-2.6030034665108
68	31092	81	2.4087081577396
68	31763	82	1.5354498025023
68	32313	83	-0.51956094842589
68	32984	84	0.335729051408
68	33534	85	-0.2875481618904
68	34084	86	-0.53582356707986
68	34525	87	0.87908209417036
67	14201	52	1.5742779378314
67	14872	53	3.2192098945146
67	15543	54	4.8824747000588
67	16214	55	6.4886362672085
67	16764	56	9.0363852181472
67	17314	57	9.2700492876692
67	17864	58	8.9172577483922
67	18414	59	9.4300110681325
67	18855	60	8.5986791831551
67	19296	61	9.2646820846589
67	19737	62	9.7671818764292
67	20178	63	9.8395380964612
67	20619	64	8.8771401651081
67	21060	65	9.276097549672
67	21501	66	9.3586020005045
67	21942	67	9.0550002572702
67	22379	68	5.6650737789676
67	22926	69	7.5513932862302
67	23367	70	8.611922875244
67	23808	71	9.5102312856464
67	24356	72	8.8371179079522
67	24906	73	9.5653523071812
67	25575	74	8.1328384916653
67	26246	75	6.8639654165174
67	26917	76	7.3503717263462
67	27864	77	5.6969846152214
67	28813	78	6.4116056604629
67	29617	79	7.584055616185
67	30421	80	4.9810521496741
67	31092	81	7.3897603074137
67	31763	82	8.925210109916
67	32313	83	8.4056491614901
67	32984	84	8.7413782128981
67	33534	85	8.4538300510077
67	34084	86	7.9180064839279
67	34525	87	8.7970885780982
66	13532	51	27.174435714286
66	14201	52	28.194455369576
66	14872	53	30.280273437658
66	15543	54	33.443768295103
66	16214	55	37.647941122235
66	16764	56	43.502873287508
66	17314	57	49.509203079539
66	17864	58	55.286949153516
66	18414	59	61.396922753446
66	18855	60	66.968252672761
66	19296	61	72.971104900613
66	19737	62	79.299541100691
66	20178	63	85.674858963048
66	20619	64	91.426611708598
66	21060	65	97.436860342389
66	21501	66	103.50056596714
66	21942	67	109.36755934812
66	22379	68	113.03812250877
66	22926	69	118.07475903267
66	23367	70	122.16489262931
66	23808	71	122.4
66	24356	72	122.4
66	24906	73	122.4
66	25575	74	122.4
66	26246	75	122.4
66	26917	76	122.4
66	27864	77	122.4
66	28813	78	122.4
66	29617	79	122.4
66	30421	80	122.4
66	31092	81	122.4
66	31763	82	122.4
66	32313	83	122.4
66	32984	84	122.4
66	33534	85	122.4
66	34084	86	122.4
66	34525	87	122.4
65	13532	51	259.56556428571
65	14201	52	258.54554463042
65	14872	53	256.45972656234
65	15543	54	253.2962317049
65	16214	55	249.09205887776
65	16764	56	243.23712671249
65	17314	57	237.23079692046
65	17864	58	231.45305084648
65	18414	59	225.34307724655
65	18855	60	219.77174732724
65	19296	61	213.76889509939
65	19737	62	207.44045889931
65	20178	63	201.06514103695
65	20619	64	195.3133882914
65	21060	65	189.30313965761
65	21501	66	183.23943403286
65	21942	67	177.37244065188
65	22379	68	173.70187749123
65	22926	69	168.34827869326
65	23367	70	160.8839217303
65	23808	71	151.71115252092
65	24356	72	143.21047631618
65	24906	73	134.00929063612
65	25575	74	126.18608092418
65	26246	75	119.58343647673
65	26917	76	112.51290390254
65	27864	77	107.03281163017
65	28813	78	100.86530495664
65	29617	79	93.569985172125
65	30421	80	88.778568793577
65	31092	81	81.670147217867
65	31763	82	73.084732607136
65	32313	83	64.999098517294
65	32984	84	56.590517060644
65	33534	85	48.458536396578
65	34084	86	40.841979730931
65	34525	87	32.379808882271
vector 105 Scenario.node[21].veinsmobility posx ETV
vector 106 Scenario.node[21].veinsmobility posy ETV
vector 107 Scenario.node[22].veinsmobility posx ETV
vector 108 Scenario.node[22].veinsmobility posy ETV
vector 109 Scenario.node[21].veinsmobility speed ETV
vector 110 Scenario.node[21].veinsmobility acceleration ETV
vector 111 Scenario.node[21].veinsmobility co2emission ETV
vector 112 Scenario.node[22].veinsmobility speed ETV
vector 113 Scenario.node[22].veinsmobility acceleration ETV
vector 114 Scenario.node[22].veinsmobility co2emission ETV
vector 115 Scenario.node[23].veinsmobility posx ETV
vector 116 Scenario.node[23].veinsmobility posy ETV
vector 117 Scenario.node[23].veinsmobility speed ETV
vector 118 Scenario.node[23].veinsmobility acceleration ETV
vector 119 Scenario.node[23].veinsmobility co2emission ETV
70	21942	67	259.56556428571
70	22379	68	258.50421644831
70	22926	69	256.11089752491
70	23367	70	252.36625961254
70	23808	71	247.24665436332
70	24356	72	240.86773618422
70	24906	73	234.28640568076
70	25575	74	228.3410207133
70	26246	75	222.24097367358
70	26917	76	215.78614147961
70	27864	77	209.08283523859
70	28813	78	202.90499313408
70	29617	79	196.61538706246
70	30421	80	190.53826450263
70	31092	81	183.84566126542
70	31763	82	177.39054327592
70	32313	83	173.52643910851
70	32984	84	167.91720674334
70	33534	85	159.1261471724
70	34084	86	149.19597919075
70	34525	87	140.16143362378
70	34966	88	130.82128993205
70	35405	89	120.84806733565
70	35953	90	111.39144619051
70	36503	91	101.98844602165
70	37053	92	92.272546903701
70	37722	93	83.050413258711
70	38393	94	73.801956645254
71	21942	67	27.174435714286
71	22379	68	28.235783551694
71	22926	69	30.629102475095
71	23367	70	34.373740387463
71	23808	71	39.493345636679
71	24356	72	45.872263815785
71	24906	73	52.453594319238
71	25575	74	58.398979286701
71	26246	75	64.499026326415
71	26917	76	70.953858520394
71	27864	77	77.657164761408
71	28813	78	83.835006865923
71	29617	79	90.12461293754
71	30421	80	96.201735497366
71	31092	81	102.89433873458
71	31763	82	109.34945672408
71	32313	83	113.21356089149
71	32984	84	118.39157094767
71	33534	85	122.4
71	34084	86	122.4
71	34525	87	122.4
71	34966	88	122.4
71	35405	89	122.4
71	35953	90	122.4
71	36503	91	122.4
71	37053	92	122.4
71	37722	93	122.4
71	38393	94	122.4
72	22379	68	300.32730714286
72	22926	69	298.96572602818
72	23367	70	296.2129529527
72	23808	71	291.49686865696
72	24356	72	284.76759722179
72	24906	73	276.36793610676
72	25575	74	267.86908276742
72	26246	75	259.50199655415
72	26917	76	250.52076928372
72	27864	77	242.02590848375
72	28813	78	232.59928583572
72	29617	79	224.0652069183
72	30421	80	214.98477610277
72	31092	81	205.96656633953
72	31763	82	196.97211960475
72	32313	83	187.61221040888
72	32984	84	180.86740845581
72	33534	85	177.45923816116
72	34084	86	171.25394202293
72	34525	87	163.5458313761
72	34966	88	153.50821214258
72	35405	89	143.71750029302
72	35953	90	134.19386650859
72	36503	91	125.3549994391
72	37053	92	116.0182421593
72	37722	93	106.50917305453
72	38393	94	97.673077744316
73	22379	68	122.4
73	22926	69	122.4
73	23367	70	122.4
73	23808	71	122.4
73	24356	72	122.4
73	24906	73	122.4
73	25575	74	122.4
73	26246	75	122.4
73	26917	76	122.4
73	27864	77	122.4
73	28813	78	122.4
73	29617	79	122.4
73	30421	80	122.4
73	31092	81	122.4
73	31763	82	122.4
73	32313	83	122.4
73	32984	84	122.4
73	33534	85	122.4
73	34084	86	122.4
73	34525	87	122.4
73	34966	88	122.4
73	35405	89	122.4
73	35953	90	122.4
73	36503	91	122.4
73	37053	92	122.4
73	37722	93	122.4
73	38393	94	122.4
74	22379	68	1.6380630276399
74	22926	69	3.6938005652744
74	23367	70	5.7793992694467
74	23808	71	7.9014963608235
74	24356	72	9.8450947533326
74	24906	73	10.15749388693
74	25575	74	9.175988264192
74	26246	75	9.4146906136034
74	26917	76	9.9622589257743
74	27864	77	10.345748801037
74	28813	78	9.5347579608868
74	29617	79	9.7072522326802
74	30421	80	9.3793094297835
74	31092	81	10.329229999004
74	31763	82	9.9627000168629
74	32313	83	5.9637810984246
74	32984	84	7.8155549943765
74	33534	85	9.8787573588743
74	34084	86	10.323186436711
74	34525	87	9.3921168736612
74	34966	88	9.7098100307595
74	35405	89	10.367945076824
74	35953	90	9.8308974554028
74	36503	91	9.7751542558858
74	37053	92	10.100437191009
74	37722	93	9.5871293554512
74	38393	94	9.6144941403728
75	22926	69	2.0557375376346
75	23367	70	2.0855987041723
75	23808	71	2.1220970913768
75	24356	72	1.9435983925091
75	24906	73	0.3123991335975
75	25575	74	-0.98150562273804
75	26246	75	0.23870234941132
75	26917	76	0.54756831217092
75	27864	77	0.3834898752626
75	28813	78	-0.81099084015004
75	29617	79	0.1724942717934
75	30421	80	-0.32794280289672
75	31092	81	0.94992056922056
75	31763	82	-0.36652998214122
75	32313	83	-3.9989189184383
75	32984	84	1.8517738959519
75	33534	85	2.0632023644979
75	34084	86	0.44442907783668
75	34525	87	-0.93106956304982
75	34966	88	0.31769315709826
75	35405	89	0.65813504606485
75	35953	90	-0.53704762142152
75	36503	91	-0.055743199517019
75	37053	92	0.32528293512296
75	37722	93	-0.5133078355575
75	38393	94	0.02736478492152
76	22926	69	3.1228744847413
76	23367	70	4.3115264102461
76	23808	71	5.5777663903715
76	24356	72	6.2845928074028
76	24906	73	2.4615495623636
76	25575	74	0.973
76	26246	75	2.1828548112814
76	26917	76	2.9965754202665
76	27864	77	2.667539951804
76	28813	78	0.973
76	29617	79	2.0663201489464
76	30421	80	0.973
76	31092	81	4.0747682740958
76	31763	82	0.973
76	32313	83	0.973
76	32984	84	5.0190301649763
76	33534	85	6.5876426364155
76	34084	86	2.81530839923
76	34525	87	0.973
76	34966	88	2.4063913975331
76	35405	89	3.3575708865617
76	35953	90	0.973
76	36503	91	1.5365195717915
76	37053	92	2.4842409679512
76	37722	93	0.973
76	38393	94	1.7193116248753
77	22926	69	1.48609461335
77	23367	70	3.0045079174219
77	23808	71	5.1473594870418
77	24356	72	7.3446480153128
77	24906	73	9.1677910353523
77	25575	74	9.2760541631461
77	26246	75	9.1322372328576
77	26917	76	9.8025400940182
77	27864	77	9.2716965151338
77	28813	78	10.288665866721
77	29617	79	9.3145010402978
77	30421	80	9.9108155778695
77	31092	81	9.8429045517549
77	31763	82	9.8169684483523
77	32313	83	10.215851620966
77	32984	84	7.3615987637818
77	33534	85	3.7198397228534
77	34084	86	6.2687734292627
77	34525	87	7.703592410804
77	34966	88	10.279219997445
77	35405	89	10.178210877985
77	35953	90	9.9005623362346
77	36503	91	9.1886937679343
77	37053	92	9.7062895906477
77	37722	93	9.8854212123521
77	38393	94	9.185812307344
78	23367	70	1.5184133040719
78	23808	71	2.14285156962
78	24356	72	2.197288528271
78	24906	73	1.8231430200394
78	25575	74	0.10826312779379
78	26246	75	-0.14381693028845
78	26917	76	0.6703028611606
78	27864	77	-0.53084357888438
78	28813	78	1.0169693515869
78	29617	79	-0.97416482642293
78	30421	80	0.59631453757174
78	31092	81	-0.067911026114597
78	31763	82	-0.025936103402637
78	32313	83	0.39888317261357
78	32984	84	-2.854252857184
78	33534	85	-3.6417590409284
78	34084	86	2.5489337064093
78	34525	87	1.4348189815413
78	34966	88	2.5756275866413
78	35405	89	-0.10100911946037
78	35953	90	-0.27764854175039
78	36503	91	-0.71186856830027
78	37053	92	0.51759582271334
78	37722	93	0.17913162170444
78	38393	94	-0.69960890500806
79	23367	70	2.3569053877367
79	23808	71	4.0291439277891
79	24356	72	5.3902391149749
79	24906	73	5.6515564968317
79	25575	74	1.8732353249147
79	26246	75	1.3043733789909
79	26917	76	3.2534200540137
79	27864	77	0.973
79	28813	78	4.2285824077935
79	29617	79	0.973
79	30421	80	3.1023281552956
79	31092	81	1.5118204801729
79	31763	82	1.6096072868695
79	32313	83	2.68336209846
79	32984	84	0.973
79	33534	85	0.973
79	34084	86	5.2860266952764
79	34525	87	4.1876901698318
79	34966	88	8.0867864044367
79	35405	89	1.4506329875947
79	35953	90	0.973
79	36503	91	0.973
79	37053	92	2.8734755538139
79	37722	93	2.1028732050815
79	38393	94	0.973
80	23808	71	300.32730714286
80	24356	72	298.84399469571
80	24906	73	295.33103874832
80	25575	74	290.48876344922
80	26246	75	283.65204094384
80	26917	76	274.62970819421
80	27864	77	265.41169433958
80	28813	78	255.88252526662
80	29617	79	246.37701216428
80	30421	80	237.40068048659
80	31092	81	228.89147299811
80	31763	82	219.90524502747
80	32313	83	210.51910434222
80	32984	84	201.30661145862
80	33534	85	192.23117526445
80	34084	86	186.87366964633
80	34525	87	179.95400125833
80	34966	88	172.10273579516
80	35405	89	161.6886240065
80	35953	90	151.57506590034
80	36503	91	141.90678817726
80	37053	92	133.91912208262
80	37722	93	125.16878596783
80	38393	94	115.24727060297
81	23808	71	122.4
81	24356	72	122.4
81	24906	73	122.4
81	25575	74	122.4
81	26246	75	122.4
81	26917	76	122.4
81	27864	77	122.4
81	28813	78	122.4
81	29617	79	122.4
81	30421	80	122.4
81	31092	81	122.4
81	31763	82	122.4
81	32313	83	122.4
81	32984	84	122.4
81	33534	85	122.4
81	34084	86	122.4
81	34525	87	122.4
81	34966	88	122.4
81	35405	89	122.4
81	35953	90	122.4
81	36503	91	122.4
81	37053	92	122.4
81	37722	93	122.4
81	38393	94	122.4
82	24356	72	1.6189579995349
82	24906	73	3.8342077854089
82	25575	74	5.2850903708953
82	26246	75	7.4619252417004
82	26917	76	9.8474045758834
82	27864	77	10.060980273238
82	28813	78	10.400589929162
82	29617	79	10.374770673797
82	30421	80	9.7971968104501
82	31092	81	9.2873551756979
82	31763	82	9.80799809691
82	32313	83	10.244481920441
82	32984	84	10.054954421953
82	33534	85	9.9053642097424
82	34084	86	5.8474373317004
82	34525	87	7.5524563367824
82	34966	88	8.1433807044133
82	35405	89	10.408007385502
82	35953	90	10.43275800601
82	36503	91	10.050931025694
82	37053	92	8.3038037666162
82	37722	93	9.0966589149067
82	38393	94	10.314191364669
83	24906	73	259.56556428571
83	25575	74	258.54963439849
83	26246	75	256.55076358542
83	26917	76	253.48571133517
83	27864	77	249.530655167
83	28813	78	245.05544312943
83	29617	79	240.52570059923
83	30421	80	236.26557896704
83	31092	81	231.94215209143
83	31763	82	227.34013382593
83	32313	83	223.20263205661
83	32984	84	219.10955016337
83	33534	85	214.63255183272
83	34084	86	210.55101987868
83	34525	87	206.62799388667
83	34966	88	202.67410674872
83	35405	89	198.66219339961
83	35953	90	194.10735112055
83	36503	91	189.48720942908
83	37053	92	184.91582370659
83	37722	93	181.04388108791
83	38393	94	176.57839434677
84	24906	73	27.174435714286
84	25575	74	28.19036560151
84	26246	75	30.189236414581
84	26917	76	33.254288664834
84	27864	77	37.209344832998
84	28813	78	41.684556870569
84	29617	79	46.214299400766
84	30421	80	50.474421032963
84	31092	81	54.797847908567
84	31763	82	59.39986617407
84	32313	83	63.53736794339
84	32984	84	67.630449836627
84	33534	85	72.107448167282
84	34084	86	76.188980121319
84	34525	87	80.112006113329
84	34966	88	84.065893251276
84	35405	89	88.077806600386
84	35953	90	92.632648879446
84	36503	91	97.252790570922
84	37053	92	101.82417629341
84	37722	93	105.69611891209
84	38393	94	110.16160565323
85	24906	73	2.215249785874
85	25575	74	1.4508825854864
85	26246	75	2.176834870805
85	26917	76	2.385479334183
85	27864	77	0.21357569735469
85	28813	78	0.33960965592414
85	29617	79	-0.025819255365059
85	30421	80	-0.57757386334706
85	31092	81	-0.50984163475223
85	31763	82	0.52064292121213
85	32313	83	0.43648382353131
85	32984	84	-0.18952749848831
85	33534	85	-0.14959021221061
85	34084	86	-4.057926878042
85	34525	87	1.705019005082
85	34966	88	0.59092436763093
85	35405	89	2.264626681089
85	35953	90	0.024750620507676
85	36503	91	-0.38182698031562
85	37053	92	-1.7471272590781
85	37722	93	0.79285514829049
85	38393	94	1.2175324497625
86	24906	73	3.3471577701573
[...]
98	29617	79	2.3448043093784
98	30421	80	2.1656922374619
98	31092	81	0.91296113099025
98	31763	82	-0.69444089930383
98	32313	83	-0.42683036133861
98	32984	84	-0.060897382952882
98	33534	85	-0.31508506883338
98	34084	86	-0.47598987508069
98	34525	87	0.37600737626214
98	34966	88	-0.6339325699256
98	35405	89	0.4807023459813
98	35953	90	-0.41718943514859
98	36503	91	1.0344067889615
98	37053	92	-0.68660631772946
98	37722	93	0.59855003245466
98	38393	94	-0.93572196039458
99	28813	78	2.4359382127072
99	29617	79	4.3389123552785
99	30421	80	5.3716693313196
99	31092	81	3.395571361365
99	31763	82	0.973
99	32313	83	0.973
99	32984	84	1.3832357119009
99	33534	85	0.973
99	34084	86	0.973
99	34525	87	2.0717944529211
99	34966	88	0.973
99	35405	89	2.2144360397002
99	35953	90	0.973
99	36503	91	3.2830281563246
99	37053	92	0.973
99	37722	93	2.5097743227976
99	38393	94	0.973
100	32313	83	300.32730714286
100	32984	84	298.7050004381
100	33534	85	294.70340323449
100	34084	86	288.47088233322
100	34525	87	280.22003105462
100	34966	88	270.37309273724
100	35405	89	259.78960295112
100	35953	90	249.46164595103
100	36503	91	238.8899711969
100	37053	92	228.4629819315
100	37722	93	217.90055978132
100	38393	94	207.97012335563
101	32313	83	122.4
101	32984	84	122.4
101	33534	85	122.4
101	34084	86	122.4
101	34525	87	122.4
101	34966	88	122.4
101	35405	89	122.4
101	35953	90	122.4
101	36503	91	122.4
101	37053	92	122.4
101	37722	93	122.4
101	38393	94	122.4
102	32984	84	1.7706629661378
102	33534	85	4.3675341740483
102	34084	86	6.8024707739707
102	34525	87	9.0053728775587
102	34966	88	10.747418448841
102	35405	89	11.551325875548
102	35953	90	11.272425196953
102	36503	91	11.538430385738
102	37053	92	11.380513737867
102	37722	93	11.528331652171
102	38393	94	10.838552269413
103	33534	85	2.5968712079106
103	34084	86	2.4349365999224
103	34525	87	2.202902103588
103	34966	88	1.7420455712825
103	35405	89	0.80390742670687
103	35953	90	-0.27890067859553
103	36503	91	0.26600518878549
103	37053	92	-0.15791664787102
103	37722	93	0.14781791430432
103	38393	94	-0.68977938275784
104	33534	85	4.061789764999
104	34084	86	5.4590537389522
104	34525	87	6.3928311940626
104	34966	88	6.2552555449285
104	35405	89	4.047595653795
104	35953	90	0.973
104	36503	91	2.5482208946137
104	37053	92	1.3620401347433
104	37722	93	2.218351040392
104	38393	94	0.973
105	34966	88	300.32730714286
105	35405	89	297.99274455956
105	35953	90	293.73204726494
105	36503	91	287.84730379174
105	37053	92	280.43030059258
105	37722	93	273.36692637882
105	38393	94	265.87940397842
106	34966	88	122.4
106	35405	89	122.4
106	35953	90	122.4
106	36503	91	122.4
106	37053	92	122.4
106	37722	93	122.4
106	38393	94	122.4
107	35405	89	259.56556428571
107	35953	90	258.17691674475
107	36503	91	255.39316709641
107	37053	92	250.98660301767
107	37722	93	245.42205600058
107	38393	94	239.46103765264
108	35405	89	27.174435714286
108	35953	90	28.56308325525
108	36503	91	31.346832903595
108	37053	92	35.75339698233
108	37722	93	41.317943999421
108	38393	94	47.278962347362
109	35405	89	2.5480530261295
109	35953	90	4.6503283795668
109	36503	91	6.4228898904519
109	37053	92	8.0952712862077
109	37722	93	7.709303733732
109	38393	94	8.1722393081546
110	35953	90	2.1022753534373
110	36503	91	1.7725615108851
110	37053	92	1.6723813957557
110	37722	93	-0.38596755247563
110	38393	94	0.46293557442259
111	35953	90	3.6997032565928
111	36503	91	4.1880946882699
111	37053	92	4.8122737228317
111	37722	93	0.973
111	38393	94	2.4664041125454
112	35953	90	2.1432108448353
112	36503	91	4.2963835383998
112	37053	92	6.8010028775549
112	37722	93	8.5882105875062
112	38393	94	9.2001165109881
113	36503	91	2.1531726935646
113	37053	92	2.504619339155
113	37722	93	1.7872077099513
113	38393	94	0.6119059234819
114	36503	91	3.5540400209563
114	37053	92	5.5723156315767
114	37722	93	5.281900901439
114	38393	94	2.9824856741555
115	37053	92	259.56556428571
115	37722	93	258.32192809268
115	38393	94	256.17216700902
116	37053	92	27.174435714286
116	37722	93	28.418071907323
116	38393	94	30.567832990984
117	37722	93	1.9194032303523
117	38393	94	3.3178982660407
118	38393	94	1.3984950356884
119	38393	94	2.3916850281663
vector 120 Scenario.node[24].veinsmobility posx ETV
vector 121 Scenario.node[24].veinsmobility posy ETV
vector 122 Scenario.node[25].veinsmobility posx ETV
vector 123 Scenario.node[25].veinsmobility posy ETV
vector 124 Scenario.node[24].veinsmobility speed ETV
vector 125 Scenario.node[25].veinsmobility speed ETV
76	39064	95	3.1678736756944
76	39735	96	0.973
76	40406	97	3.1340213434894
76	41077	98	0.973
76	42020	99	0.973
75	39064	95	0.59614499297459
75	39735	96	-0.58850942947902
75	40406	97	0.58288545468822
75	41077	98	-0.57510518995114
75	42020	99	-0.26957782513928
74	39064	95	10.210639133347
74	39735	96	9.6221297038683
74	40406	97	10.205015158557
74	41077	98	9.6299099686054
74	42020	99	9.3603321434661
71	39064	95	122.4
71	39735	96	122.4
71	40406	97	122.4
71	41077	98	122.4
71	42020	99	122.4
70	39064	95	63.98005113034
70	39735	96	54.724249650198
70	40406	97	44.90775399732
70	41077	98	35.644468458234
70	42020	99	26.640497531373
vector 126 Scenario.node[24].veinsmobility acceleration ETV
vector 127 Scenario.node[24].veinsmobility co2emission ETV
vector 128 Scenario.node[25].veinsmobility acceleration ETV
vector 129 Scenario.node[25].veinsmobility co2emission ETV
vector 130 Scenario.node[26].veinsmobility posx ETV
vector 131 Scenario.node[26].veinsmobility posy ETV
vector 132 Scenario.node[27].veinsmobility posx ETV
vector 133 Scenario.node[27].veinsmobility posy ETV
79	39064	95	2.0163357946006
79	39735	96	2.1098177826921
79	40406	97	1.2302568652291
79	41077	98	2.8482445906922
79	42020	99	0.973
79	42969	100	2.1236794820125
79	43773	101	0.973
78	39064	95	0.16833278180566
78	39735	96	0.19911335106008
78	40406	97	-0.18059991220944
78	41077	98	0.49356426044833
78	42020	99	-0.34496426382102
78	42969	100	0.19646759149618
78	43773	101	-0.57524334180634
77	39064	95	9.3541450891497
77	39735	96	9.5532584402098
77	40406	97	9.3726585280003
77	41077	98	9.8662227884487
77	42020	99	9.5212585246277
77	42969	100	9.7177261161238
77	43773	101	9.1424827743175
73	39064	95	122.4
73	39735	96	122.4
73	40406	97	122.4
73	41077	98	122.4
73	42020	99	122.4
73	42969	100	122.4
73	43773	101	122.4
72	39064	95	88.675058321775
72	39735	96	79.485506077896
72	40406	97	70.469678049569
72	41077	98	60.97907645728
72	42020	99	51.820305846483
72	42969	100	42.472547446066
72	43773	101	33.678132051656
vector 134 Scenario.node[26].veinsmobility speed ETV
vector 135 Scenario.node[27].veinsmobility speed ETV
vector 136 Scenario.node[26].veinsmobility acceleration ETV
vector 137 Scenario.node[26].veinsmobility co2emission ETV
vector 138 Scenario.node[27].veinsmobility acceleration ETV
vector 139 Scenario.node[27].veinsmobility co2emission ETV
86	39064	95	0.973
86	39735	96	0.973
86	40406	97	2.9172838842614
86	41077	98	1.2435413628251
86	42020	99	0.973
86	42969	100	2.3343103836549
86	43773	101	2.3996381803366
86	44875	102	0.973
86	45824	103	5.8608044940636
85	39064	95	-0.90029360583695
85	39735	96	-0.18914814144646
85	40406	97	0.53195526033147
85	41077	98	-0.17749401058399
85	42020	99	-0.46897398470033
85	42969	100	0.30539339051073
85	43773	101	0.3135647372821
85	44875	102	-1.0849592821121
85	45824	103	1.670239813718
82	39064	95	9.4138977588322
82	39735	96	9.2247496173858
82	40406	97	9.7567048777173
82	41077	98	9.5792108671333
82	42020	99	9.1102368824329
82	42969	100	9.4156302729437
82	43773	101	9.7291950102258
82	44875	102	8.6442357281137
82	45824	103	10.314475541832
81	39064	95	122.4
81	39735	96	122.4
81	40406	97	122.4
81	41077	98	122.4
81	42020	99	122.4
81	42969	100	122.4
81	43773	101	122.4
81	44875	102	122.4
81	45824	103	122.4
80	39064	95	106.19177338024
80	39735	96	97.318223159006
80	40406	97	87.932969974133
80	41077	98	78.718453349299
80	42020	99	69.955056199604
80	42969	100	60.897892422052
80	43773	101	51.539101764715
80	44875	102	43.223964439679
80	45824	103	33.30217571669
83	39064	95	173.47220301982
83	39735	96	168.83416788883
83	40406	97	163.36124298576
83	41077	98	157.42209281351
83	42020	99	150.4978798206
83	42969	100	144.18506089672
83	43773	101	137.54766081615
83	44875	102	131.71827715394
83	45824	103	125.30409041983
83	46773	104	119.06943907581
84	39064	95	113.26779698018
84	39735	96	117.64586140706
84	40406	97	121.3273968638
84	41077	98	122.4
84	42020	99	122.4
84	42969	100	122.4
84	43773	101	122.4
84	44875	102	122.4
84	45824	103	122.4
84	46773	104	122.4
87	39064	95	4.7940335770413
87	39735	96	6.5482353707939
87	40406	97	6.6210728986818
87	41077	98	6.2127950003767
87	42020	99	7.1982610752737
87	42969	100	6.5626691122238
87	43773	101	6.9000966160256
87	44875	102	6.060100339416
87	45824	103	6.6680488807779
87	46773	104	6.4814077980515
88	39064	95	-2.0979093593434
88	39735	96	1.7542017937527
88	40406	97	0.072837527887895
88	41077	98	-0.4082778983051
88	42020	99	0.98546607489698
88	42969	100	-0.63559196304996
88	43773	101	0.33742750380188
88	44875	102	-0.8399962766096
88	45824	103	0.60794854136184
88	46773	104	-0.18664108272642
89	39064	95	0.973
89	39735	96	4.2201746370841
89	40406	97	1.5724396040154
89	41077	98	0.973
89	42020	99	3.2012671129786
89	42969	100	0.973
89	43773	101	2.0343252819527
89	44875	102	0.973
89	45824	103	2.4360283989067
89	46773	104	0.973
90	39064	95	162.03883092342
90	39735	96	153.22876255716
90	40406	97	144.88084438299
90	41077	98	135.87626590728
90	42020	99	127.458101838
90	42969	100	119.4261611858
90	43773	101	110.74058950139
90	44875	102	102.94313691302
90	45824	103	94.701868338112
90	46773	104	86.730444476932
91	39064	95	122.4
91	39735	96	122.4
91	40406	97	122.4
91	41077	98	122.4
91	42020	99	122.4
91	42969	100	122.4
91	43773	101	122.4
91	44875	102	122.4
91	45824	103	122.4
91	46773	104	122.4
92	39064	95	182.39068996083
92	39735	96	179.3958333627
92	40406	97	175.06634418778
92	41077	98	170.65313654608
92	42020	99	166.06654956982
92	42969	100	159.2657853121
92	43773	101	152.38818884133
92	44875	102	146.03653337741
92	45824	103	140.70835414751
92	46773	104	133.61727150113
93	39064	95	104.34931003917
93	39735	96	107.3441666373
93	40406	97	111.67365581222
93	41077	98	115.96907628367
93	42020	99	119.75169248483
93	42969	100	122.4
93	43773	101	122.4
93	44875	102	122.4
93	45824	103	122.4
93	46773	104	122.4
94	39064	95	9.1164516528491
94	39735	96	9.0636126028029
94	40406	97	8.6783139851763
94	41077	98	9.3609637380233
94	42020	99	8.7513400883535
94	42969	100	8.3498306327155
94	43773	101	9.0293312231199
94	44875	102	8.1060619467757
94	45824	103	8.56744338373
94	46773	104	8.2869186943285
95	39064	95	6.4042111702013
95	39735	96	4.6222017830306
95	40406	97	6.6820470123387
95	41077	98	6.5348715238964
95	42020	99	5.9538768284217
95	42969	100	7.4370579357089
95	43773	101	7.1497995537819
95	44875	102	6.6030427337064
95	45824	103	5.5390591236798
95	46773	104	7.3717351339857
96	39064	95	0.45405789944343
96	39735	96	-0.052839050046167
96	40406	97	-0.38529861762654
96	41077	98	0.68264975284692
96	42020	99	-0.60962364966981
96	42969	100	-0.40150945563801
96	43773	101	0.67950059040449
96	44875	102	-0.92326927634422
96	45824	103	0.46138143695425
96	46773	104	-0.2805246894015
97	39064	95	2.6173645659366
97	39735	96	1.50059301648
97	40406	97	0.973
97	41077	98	3.1774019219786
97	42020	99	0.973
97	42969	100	0.973
97	43773	101	3.0922197703715
97	44875	102	0.973
97	45824	103	2.5340259197501
97	46773	104	0.973
98	39064	95	0.23979777860877
98	39735	96	-1.7820093871707
98	40406	97	2.0598452293081
98	41077	98	-0.14717548844232
98	42020	99	-0.58099469547464
98	42969	100	1.4831811072872
98	43773	101	-0.28725838192699
98	44875	102	-0.54675682007548
98	45824	103	-1.0639836100267
98	46773	104	1.8326760103059
99	39064	95	1.8133110131773
99	39735	96	0.973
99	40406	97	4.7770231689639
99	41077	98	1.2192349872232
99	42020	99	0.973
99	42969	100	4.1651144480647
99	43773	101	0.973
99	44875	102	0.973
99	45824	103	0.973
99	46773	104	4.7585298451572
100	39064	95	198.1764895189
100	39735	96	187.83425978382
100	40406	97	180.9882070282
100	41077	98	177.45546929296
100	42020	99	171.84033472638
100	42969	100	163.62381492138
100	43773	101	159.89274751137
100	44875	102	157.60593300792
100	45824	103	153.72611506159
100	46773	104	148.36706390122
101	39064	95	122.4
101	39735	96	122.4
101	40406	97	122.4
101	41077	98	122.4
101	42020	99	122.4
101	42969	100	122.4
101	43773	101	122.4
101	44875	102	122.4
101	45824	103	122.4
101	46773	104	122.4
102	39064	95	10.689239394576
102	39735	96	11.288003141111
102	40406	97	7.4721087221247
102	41077	98	3.8557985728003
102	42020	99	5.6786109269226
102	42969	100	8.211703556576
102	43773	101	3.7288803833907
102	44875	102	2.3683760508877
102	45824	103	4.0333742666274
102	46773	104	5.5711529104561
103	39064	95	-0.14931287483778
103	39735	96	0.5987637465354
103	40406	97	-3.8158944189864
103	41077	98	-3.6163101493243
103	42020	99	1.8228123541223
103	42969	100	2.5330926296534
103	43773	101	-4.4828231731853
103	44875	102	-1.3605043325029
103	45824	103	1.6649982157396
103	46773	104	1.5377786438287
104	39064	95	1.3538300282753
104	39735	96	3.416284530583
104	40406	97	0.973
104	41077	98	0.973
104	42020	99	3.8954534025832
104	42969	100	6.5703281283978
104	43773	101	0.973
104	44875	102	0.973
104	45824	103	2.9290816395554
104	46773	104	3.4594213969436
105	39064	95	258.18600047915
105	39735	96	250.91468352832
105	40406	97	243.78078385089
105	41077	98	235.82963663516
105	42020	99	228.43849068466
105	42969	100	220.6643202058
105	43773	101	213.15606939564
105	44875	102	205.0904564729
105	45824	103	197.26736554095
105	46773	104	189.94760010725
106	39064	95	122.4
106	39735	96	122.4
106	40406	97	122.4
106	41077	98	122.4
106	42020	99	122.4
106	42969	100	122.4
106	43773	101	122.4
106	44875	102	122.4
106	45824	103	122.4
106	46773	104	122.4
107	39064	95	233.6423215565
107	39735	96	227.89559697475
107	40406	97	221.76806527185
107	41077	98	215.69106033325
107	42020	99	209.95387789464
107	42969	100	204.23351269903
107	43773	101	198.13838856484
107	44875	102	192.09333255669
107	45824	103	186.20108028704
107	46773	104	180.45507405854
108	39064	95	53.097678443501
108	39735	96	58.844403025245
108	40406	97	64.971934728146
108	41077	98	71.048939666755
108	42020	99	76.786122105355
108	42969	100	82.506487300969
108	43773	101	88.601611435156
108	44875	102	94.646667443312
108	45824	103	100.53891971296
108	46773	104	106.28492594146
109	39064	95	8.396947765632
109	39735	96	7.9362623615446
109	40406	97	7.7862785907951
109	41077	98	8.678261559226
109	42020	99	8.0670494509185
109	42969	100	8.4851007019658
109	43773	101	8.1948632838693
109	44875	102	8.8031948950164
109	45824	103	8.5384948193118
109	46773	104	7.9891413480765
110	39064	95	0.22470845747739
110	39735	96	-0.46068540408742
110	40406	97	-0.14998377074953
110	41077	98	0.89198296843097
110	42020	99	-0.61121210830752
110	42969	100	0.41805125104729
110	43773	101	-0.29023741809651
110	44875	102	0.60833161114715
110	45824	103	-0.2647000757046
110	46773	104	-0.54935347123537
111	39064	95	2.0244969362399
111	39735	96	0.973
111	40406	97	1.2477741946681
111	41077	98	3.454563872915
111	42020	99	0.973
111	42969	100	2.4306325079589
111	43773	101	0.973
111	44875	102	2.8883064116881
111	45824	103	0.973
111	46773	104	0.973
112	39064	95	8.9804900612876
112	39735	96	8.8693797976439
112	40406	97	9.4571098931328
112	41077	98	9.3791278955488
112	42020	99	8.8546526447366
112	42969	100	8.8286972482185
112	43773	101	9.4070926996608
112	44875	102	9.3298185551966
112	45824	103	9.0939843209189
112	46773	104	8.8682711056162
113	39064	95	-0.21962644970045
113	39735	96	-0.11111026364379
113	40406	97	0.58773009548895
113	41077	98	-0.077981997583993
113	42020	99	-0.52447525081225
113	42969	100	-0.025955396518112
113	43773	101	0.57839545144234
113	44875	102	-0.077274144464173
113	45824	103	-0.23583423427772
113	46773	104	-0.22571321530268
114	39064	95	0.973
114	39735	96	1.3648127937937
114	40406	97	2.9838793822051
114	41077	98	1.462399417552
114	42020	99	0.973
114	42969	100	1.5442421574519
114	43773	101	2.9519861176837
114	44875	102	1.4613432242885
114	45824	103	0.973
114	46773	104	0.973
115	39064	95	252.59403240346
115	39735	96	248.3973674634
115	40406	97	243.78368764809
115	41077	98	239.67898205699
115	42020	99	234.9707365355
115	42969	100	230.53214570066
115	43773	101	225.80737709149
115	44875	102	221.32992065185
115	45824	103	217.29333118186
115	46773	104	213.14682924312
116	39064	95	34.145967596536
116	39735	96	38.342632536604
116	40406	97	42.956312351913
116	41077	98	47.061017943012
116	42020	99	51.769263464498
116	42969	100	56.207854299345
116	43773	101	60.932622908508
116	44875	102	65.410079348149
116	45824	103	69.446668818139
116	46773	104	73.593170756879
117	39064	95	5.5224213954061
117	39735	96	6.4770487444548
117	40406	97	7.1206611635236
117	41077	98	6.3351205242404
117	42020	99	7.2666119833316
117	42969	100	6.8504323324727
117	43773	101	7.2921133864278
117	44875	102	6.9104167296856
117	45824	103	6.2299914650924
117	46773	104	6.3996281713552
118	39064	95	2.2045231293654
118	39735	96	0.95462734904864
118	40406	97	0.64361241906881
118	41077	98	-0.78554063928314
118	42020	99	0.93149145909119
118	42969	100	-0.41617965085898
118	43773	101	0.44168105395511
118	44875	102	-0.38169665674213
118	45824	103	-0.68042526459321
118	46773	104	0.16963670626283
119	39064	95	4.3259675515413
119	39735	96	2.9376980496464
119	40406	97	2.5913435741416
119	41077	98	0.973
119	42020	99	3.1272651407773
119	42969	100	0.973
119	43773	101	2.2738021425633
119	44875	102	0.973
119	45824	103	0.973
119	46773	104	1.7045628660062
120	41077	98	300.32730714286
120	42020	99	298.25746945505
120	42969	100	294.16383599428
120	43773	101	287.71829852809
120	44875	102	279.45920506884
120	45824	103	270.83946488696
120	46773	104	262.89296339363
121	41077	98	122.4
121	42020	99	122.4
121	42969	100	122.4
121	43773	101	122.4
121	44875	102	122.4
121	45824	103	122.4
121	46773	104	122.4
122	41077	98	259.56556428571
122	42020	99	258.49070562727
122	42969	100	256.44028734003
122	43773	101	253.25167810845
122	44875	102	249.05921516713
122	45824	103	243.45276235812
122	46773	104	236.77890434999
123	41077	98	27.174435714286
123	42020	99	28.249294372732
123	42969	100	30.299712659975
123	43773	101	33.488321891552
123	44875	102	37.680784832867
123	45824	103	43.28723764188
123	46773	104	49.961095650011
124	42020	99	2.2591196405469
124	42969	100	4.4679869377753
124	43773	101	7.0349672196666
124	44875	102	9.0143687868883
124	45824	103	9.4079958327274
124	46773	104	8.6731909960668
125	42020	99	1.6589153586421
125	42969	100	3.1645745806862
125	43773	101	4.9212357228622
125	44875	102	6.4705634636106
125	45824	103	8.652887148736
125	46773	104	10.300298987303
126	42969	100	2.2088672972284
126	43773	101	2.5669802818913
126	44875	102	1.9794015672218
126	45824	103	0.39362704583909
126	46773	104	-0.73480483666062
127	42969	100	3.71225017827
127	43773	101	5.8336579295835
127	44875	102	5.912696845272
127	45824	103	2.5332473328001
127	46773	104	0.973
128	42969	100	1.5056592220441
128	43773	101	1.756661142176
128	44875	102	1.5493277407484
128	45824	103	2.1823236851254
128	46773	104	1.6474118385666
129	42969	100	2.4138965118932
129	43773	101	3.4418420103378
129	44875	102	3.863197073745
129	45824	103	6.1381636635218
129	46773	104	5.7973292231438
130	43773	101	300.32730714286
130	44875	102	298.34111703671
130	45824	103	294.63688922253
130	46773	104	289.00006575652
131	43773	101	122.4
131	44875	102	122.4
131	45824	103	122.4
131	46773	104	122.4
132	43773	101	259.56556428571
132	44875	102	258.34475755979
132	45824	103	256.22471528191
132	46773	104	252.52707237114
133	43773	101	27.174435714286
133	44875	102	28.395242440209
133	45824	103	30.515284718087
133	46773	104	34.212927628856
134	44875	102	2.1678226776421
134	45824	103	4.042971029738
134	46773	104	6.1522981620161
135	44875	102	1.8841686873464
135	45824	103	3.2720308555057
135	46773	104	5.7068681237753
136	45824	103	1.8751483520959
136	46773	104	2.1093271322781
137	45824	103	3.1381998484352
137	46773	104	4.5558065376356
138	45824	103	1.3878621681593
138	46773	104	2.4348372682696
139	45824	103	2.3654906991206
139	46773	104	4.7512352979913

