version 2
run General-0-20211112-08:41:30-4235
attr configname General
attr datetime 20211112-08:41:30
attr experiment General
attr inifile omnetpp.ini
attr iterationvars ""
attr iterationvarsf ""
attr measurement ""
attr network org.car2x.veins.nodes.Scenario
attr processid 4235
attr repetition 0
attr replication #0
attr resultdir results
attr runnumber 0
attr seedset 0
param *.playgroundSizeX 3000m
param *.playgroundSizeY 2000m
param *.playgroundSizeZ 50m
param *.manager.updateInterval 1s
param *.manager.host "\"localhost\""
param *.manager.port 9999
param *.manager.autoShutdown true
param *.manager.launchConfig "xmldoc(\"veins.launchd.xml\")"
param *.annotations.draw true
param *.connectionManager.sendDirect true
param *.connectionManager.maxInterfDist 500m
param *.connectionManager.drawMaxIntfDist false
param *.**.nic.mac1609_4.useServiceChannel false
param *.**.nic.mac1609_4.txPower 20mW
param *.**.nic.mac1609_4.bitrate 6Mbps
param *.**.nic.phy80211p.minPowerLevel -110dBm
param *.**.nic.phy80211p.useNoiseFloor true
param *.**.nic.phy80211p.noiseFloor -98dBm
param *.**.nic.phy80211p.decider "xmldoc(\"config.xml\")"
param *.**.nic.phy80211p.analogueModels "xmldoc(\"config.xml\")"
param *.**.nic.phy80211p.usePropagationDelay true
param *.**.nic.phy80211p.antenna "xmldoc(\"antenna.xml\", \"/root/Antenna[@id='monopole']\")"
param *.node[*].nic.phy80211p.antennaOffsetY "0 m"
param *.node[*].nic.phy80211p.antennaOffsetZ "0 m"
param *.node[*].applType "\"InteractingVehicle\""
param *.node[*].appl.headerLength "88 bit"
param *.node[*].appl.dataLengthBits "512 bit"
param *.node[*].appl.sendBeacons false
param *.node[*].appl.dataOnSch false
param *.node[*].appl.beaconInterval 1s
param *.node[*].veinsmobility.x 0
param *.node[*].veinsmobility.y 0
param *.node[*].veinsmobility.z 0
param *.obstacles.obstacles "xmldoc(\"config.xml\", \"//AnalogueModel[@type='SimpleObstacleShadowing']/obstacles\")"

vector 0 Scenario.node[0].veinsmobility posx ETV
vector 1 Scenario.node[0].veinsmobility posy ETV
vector 2 Scenario.node[0].veinsmobility speed ETV
vector 3 Scenario.node[0].veinsmobility acceleration ETV
vector 4 Scenario.node[0].veinsmobility co2emission ETV
vector 5 Scenario.node[1].veinsmobility posx ETV
vector 6 Scenario.node[1].veinsmobility posy ETV
vector 7 Scenario.node[1].veinsmobility speed ETV
vector 8 Scenario.node[1].veinsmobility acceleration ETV
vector 9 Scenario.node[1].veinsmobility co2emission ETV
vector 10 Scenario.node[2].veinsmobility posx ETV
vector 11 Scenario.node[2].veinsmobility posy ETV
vector 12 Scenario.node[2].veinsmobility speed ETV
vector 13 Scenario.node[3].veinsmobility posx ETV
vector 14 Scenario.node[3].veinsmobility posy ETV
vector 15 Scenario.node[2].veinsmobility acceleration ETV
vector 16 Scenario.node[2].veinsmobility co2emission ETV
vector 17 Scenario.node[3].veinsmobility speed ETV
vector 18 Scenario.node[3].veinsmobility acceleration ETV
vector 19 Scenario.node[3].veinsmobility co2emission ETV
vector 20 Scenario.node[4].veinsmobility posx ETV
vector 21 Scenario.node[4].veinsmobility posy ETV
vector 22 Scenario.node[5].veinsmobility posx ETV
vector 23 Scenario.node[5].veinsmobility posy ETV
vector 24 Scenario.node[4].veinsmobility speed ETV
vector 25 Scenario.node[4].veinsmobility acceleration ETV
vector 26 Scenario.node[4].veinsmobility co2emission ETV
vector 27 Scenario.node[5].veinsmobility speed ETV
vector 28 Scenario.node[6].veinsmobility posx ETV
vector 29 Scenario.node[6].veinsmobility posy ETV
vector 30 Scenario.node[5].veinsmobility acceleration ETV
vector 31 Scenario.node[5].veinsmobility co2emission ETV
vector 32 Scenario.node[6].veinsmobility speed ETV
vector 33 Scenario.node[6].veinsmobility acceleration ETV
vector 34 Scenario.node[6].veinsmobility co2emission ETV
vector 35 Scenario.node[7].veinsmobility posx ETV
vector 36 Scenario.node[7].veinsmobility posy ETV
vector 37 Scenario.node[7].veinsmobility speed ETV
vector 38 Scenario.node[7].veinsmobility acceleration ETV
vector 39 Scenario.node[7].veinsmobility co2emission ETV
vector 40 Scenario.node[8].veinsmobility posx ETV
vector 41 Scenario.node[8].veinsmobility posy ETV
vector 42 Scenario.node[9].veinsmobility posx ETV
vector 43 Scenario.node[9].veinsmobility posy ETV
vector 44 Scenario.node[8].veinsmobility speed ETV
vector 45 Scenario.node[8].veinsmobility acceleration ETV
vector 46 Scenario.node[8].veinsmobility co2emission ETV
vector 47 Scenario.node[9].veinsmobility speed ETV
vector 48 Scenario.node[10].veinsmobility posx ETV
vector 49 Scenario.node[10].veinsmobility posy ETV
vector 50 Scenario.node[9].veinsmobility acceleration ETV
vector 51 Scenario.node[9].veinsmobility co2emission ETV
4	10	9	3.328978911834
4	11	10	5.3992915792338
4	12	11	5.4988625648564
4	13	12	6.7678433290806
4	14	13	6.1863116867043
4	15	14	8.1017470481023
4	16	15	7.7763917117965
4	17	16	1.8425908196223
4	18	17	3.0437927681246
4	19	18	0.973
4	20	19	0.973
4	21	20	0.973
4	22	21	7.0461437622543
4	23	22	6.6117669984747
4	24	23	9.4048090521679
4	25	24	10.874577109877
4	26	25	2.4362859978736
4	27	26	0.973
4	28	27	3.0755812649348
4	29	28	3.4596390979311
4	30	29	0.973
4	31	30	6.1404030120539
4	32	31	2.6488129421986
3	10	9	2.211610493972
3	11	10	2.5730224694125
3	12	11	1.9570330932038
3	13	12	2.024080570112
3	14	13	1.5185152296908
3	15	14	1.8416817353806
3	16	15	1.5248069964781
3	17	16	-0.087754243426025
3	18	17	0.23039420649875
3	19	18	-1.3033453480396
3	20	19	-3.3198474745965
3	21	20	-4.5
3	22	21	2.5601983566536
3	23	22	1.8865424470045
3	24	23	2.3656493975548
3	25	24	2.3368454781882
3	26	25	0.063481090287677
3	27	26	-0.83881860112306
3	28	27	0.26195232574828
3	29	28	0.34983377945609
3	30	29	-0.95181753973011
3	31	30	1.0674401477212
3	32	31	0.12011264604516
2	9	8	1.5972831639228
2	10	9	3.8088936578948
2	11	10	6.3819161273073
2	12	11	8.3389492205111
2	13	12	10.363029790623
2	14	13	11.881545020314
2	15	14	13.723226755694
2	16	15	15.248033752173
2	17	16	15.160279508747
2	18	17	15.390673715245
2	19	18	14.087328367206
2	20	19	10.767480892609
2	21	20	6.2674808926093
2	22	21	8.8276792492629
2	23	22	10.714221696267
2	24	23	13.079871093822
2	25	24	15.41671657201
2	26	25	15.480197662298
2	27	26	14.641379061175
2	28	27	14.903331386923
2	29	28	15.253165166379
2	30	29	14.301347626649
2	31	30	15.36878777437
2	32	31	15.488900420416
1	8	7	59.632292857143
1	9	8	70.832784677533
1	10	9	97.54156319819
1	11	10	142.29292663632
1	12	11	200.76742548824
1	13	12	273.43521102933
1	14	13	356.75115075713
1	15	14	452.98135745951
1	16	15	559.90383756555
1	17	16	666.2109661122
1	18	17	774.13366820501
1	19	18	872.91703342908
1	20	19	948.42091676539
1	21	20	992.36983581599
1	22	21	1010.1242901531
1	23	22	1013.4
1	24	23	1013.4
1	25	24	1013.4
1	26	25	1013.4
1	27	26	1013.4
1	28	27	1013.4
1	29	28	1013.4
1	30	29	1013.4
1	31	30	1013.4
1	32	31	1013.4
0	8	7	2378.1077071429
0	9	8	2366.9072153225
0	10	9	2340.1984368018
0	11	10	2295.4470733637
0	12	11	2236.9725745118
0	13	12	2164.3047889707
0	14	13	2080.9888492429
0	15	14	1984.7586425405
0	16	15	1877.8361624345
0	17	16	1771.5290338878
0	18	17	1663.606331795
0	19	18	1564.8229665709
0	20	19	1489.3190832346
0	21	20	1445.370164184
0	22	21	1426.9202281523
0	23	22	1393.3902151551
0	24	23	1263.0894735949
0	25	24	1109.5092442986
0	26	25	955.29662091517
0	27	26	809.44024852054
0	28	27	660.97432576768
0	29	28	509.02338389201
0	30	29	366.55438036016
0	31	30	213.45161432243
0	32	31	59.152294684284
vector 52 Scenario.node[11].veinsmobility posx ETV
vector 53 Scenario.node[11].veinsmobility posy ETV
vector 54 Scenario.node[10].veinsmobility speed ETV
vector 55 Scenario.node[10].veinsmobility acceleration ETV
vector 56 Scenario.node[10].veinsmobility co2emission ETV
vector 57 Scenario.node[11].veinsmobility speed ETV
vector 58 Scenario.node[11].veinsmobility acceleration ETV
vector 59 Scenario.node[11].veinsmobility co2emission ETV
vector 60 Scenario.node[12].veinsmobility posx ETV
vector 61 Scenario.node[12].veinsmobility posy ETV
vector 62 Scenario.node[13].veinsmobility posx ETV
vector 63 Scenario.node[13].veinsmobility posy ETV
vector 64 Scenario.node[12].veinsmobility speed ETV
vector 65 Scenario.node[13].veinsmobility speed ETV
9	13	12	2.6116930695776
9	14	13	3.9014679754244
9	15	14	5.7828725756006
9	16	15	5.4132348867895
9	17	16	8.5473499656636
9	18	17	10.23712136297
9	19	18	0.973
9	20	19	4.7836340194648
9	21	20	0.973
9	22	21	2.3886445052809
9	23	22	0.973
9	24	23	0.973
9	25	24	0.973
9	26	25	4.9444763537319
9	27	26	5.4005950077041
9	28	27	5.8636857216245
9	29	28	6.6315171434637
9	30	29	8.9235678361406
9	31	30	1.7471120909585
9	32	31	0.973
9	33	32	1.7826059274351
9	34	33	2.3678686905922
9	35	34	2.5150770322589
9	36	35	4.8893852081672
9	37	36	0.973
8	13	12	1.6265549525851
8	14	13	1.9519408820895
8	15	14	2.3077643562108
8	16	15	1.6780295867007
8	17	16	2.3801559150219
8	18	17	2.404508772539
8	19	18	-0.80261841063706
8	20	19	0.80251828881446
8	21	20	-0.61951419338584
8	22	21	0.11812534497585
8	23	22	-1.1229980392009
8	24	23	-4.1501906085221
8	25	24	-3.6443448095
8	26	25	2.1146570136538
8	27	26	1.8293019986944
8	28	27	1.6702538255369
8	29	28	1.6575858970871
8	30	29	2.0377519435852
8	31	30	-0.084790545632131
8	32	31	-0.53418774311431
8	33	32	-0.059105673152954
8	34	33	0.11831503594294
8	35	34	0.15707980562001
8	36	35	0.80759691353887
8	37	36	-0.87964843970258
7	12	11	1.7762572988868
7	13	12	3.4028122514719
7	14	13	5.3547531335615
7	15	14	7.6625174897723
7	16	15	9.340547076473
7	17	16	11.720702991495
7	18	17	14.125211764034
7	19	18	13.322593353397
7	20	19	14.125111642211
7	21	20	13.505597448825
7	22	21	13.623722793801
7	23	22	12.5007247546
7	24	23	8.3505341460783
7	25	24	4.7061893365782
7	26	25	6.820846350232
7	27	26	8.6501483489264
7	28	27	10.320402174463
7	29	28	11.97798807155
7	30	29	14.015740015136
7	31	30	13.930949469504
7	32	31	13.396761726389
7	33	32	13.337656053236
7	34	33	13.455971089179
7	35	34	13.613050894799
7	36	35	14.420647808338
7	37	36	13.540999368636
6	11	10	59.632292857143
6	12	11	72.087789663501
6	13	12	95.949038344876
6	14	13	133.49771476451
6	15	14	187.22892937083
6	16	15	252.72684701686
6	17	16	334.91492797243
6	18	17	433.96393969293
6	19	18	527.38481912838
6	20	19	626.4331287732
6	21	20	721.13727214096
6	22	21	816.66973574027
6	23	22	904.32749644626
6	24	23	962.88323127873
6	25	24	995.88403937597
6	26	25	1009.2325529188
6	27	26	1013.2228252182
6	28	27	1013.4
6	29	28	1013.4
6	30	29	1013.4
6	31	30	1013.4
6	32	31	1013.4
6	33	32	1013.4
6	34	33	1013.4
6	35	34	1013.4
6	36	35	1013.4
6	37	36	1013.4
5	11	10	2378.1077071429
5	12	11	2365.6522103365
5	13	12	2341.7909616551
5	14	13	2304.2422852355
5	15	14	2250.5110706292
5	16	15	2185.0131529831
5	17	16	2102.8250720276
5	18	17	2003.7760603071
5	19	18	1910.3551808716
5	20	19	1811.3068712268
5	21	20	1716.602727859
5	22	21	1621.0702642597
5	23	22	1533.4125035537
5	24	23	1474.8567687213
5	25	24	1441.855960624
5	26	25	1428.1335755368
5	27	26	1420.5848004039
5	28	27	1326.1407166209
5	29	28	1206.8168550226
5	30	29	1067.1930541162
5	31	30	928.41393056878
5	32	31	794.95634716204
5	33	32	662.08757024942
5	34	33	528.04014739981
5	35	34	392.4279067466
5	36	35	248.7704433262
5	37	36	113.8759748301
vector 66 Scenario.node[12].veinsmobility acceleration ETV
vector 67 Scenario.node[12].veinsmobility co2emission ETV
vector 68 Scenario.node[13].veinsmobility acceleration ETV
vector 69 Scenario.node[13].veinsmobility co2emission ETV
vector 70 Scenario.node[14].veinsmobility posx ETV
vector 71 Scenario.node[14].veinsmobility posy ETV
vector 72 Scenario.node[14].veinsmobility speed ETV
19	18	17	3.7618728991628
19	19	18	4.584670330842
19	20	19	5.6336839244473
19	21	20	8.7726580915256
19	22	21	9.0416141301738
19	23	22	4.405884885634
19	24	23	0.973
19	25	24	3.2517740796582
19	26	25	1.118788226966
19	27	26	2.135428533129
19	28	27	0.973
19	29	28	2.0951521565547
19	30	29	2.6096153533013
19	31	30	3.4258607646406
19	32	31	0.973
19	33	32	3.7653694615747
19	34	33	0.973
19	35	34	2.6830325145247
19	36	35	2.8056369592607
19	37	36	0.973
19	38	37	2.4494028450207
19	39	38	5.2057622424729
19	40	39	0.973
18	18	17	2.1262006659992
18	19	18	1.9475630259607
18	20	19	1.9511305246269
18	21	20	2.5901939699426
18	22	21	2.1889083944727
18	23	22	0.69472347526096
18	24	23	-0.52674202737398
18	25	24	0.36386337731965
18	26	25	-0.26895097126253
18	27	26	0.038726707990282
18	28	27	-0.54463393285405
18	29	28	0.043042476614938
18	30	29	0.19597570800688
18	31	30	0.42261073687114
18	32	31	-0.34015654753894
18	33	32	0.5129268506309
18	34	33	-1.0359644118696
18	35	34	0.22873013389763
18	36	35	0.25462242469657
18	37	36	-0.4410324328579
18	38	37	0.15641344385222
18	39	38	0.9312583835097
18	40	39	-1.2585241494235
17	17	16	2.5865135943983
17	18	17	4.7127142603975
17	19	18	6.6602772863582
17	20	19	8.6114078109851
17	21	20	11.201601780928
17	22	21	13.3905101754
17	23	22	14.085233650661
17	24	23	13.558491623287
17	25	24	13.922355000607
17	26	25	13.653404029345
17	27	26	13.692130737335
17	28	27	13.147496804481
17	29	28	13.190539281096
17	30	29	13.386514989103
17	31	30	13.809125725974
17	32	31	13.468969178435
17	33	32	13.981896029066
17	34	33	12.945931617196
17	35	34	13.174661751094
17	36	35	13.42928417579
17	37	36	12.988251742932
17	38	37	13.144665186785
17	39	38	14.075923570294
17	40	39	12.817399420871
14	16	15	1013.4
14	17	16	1013.4
14	18	17	1013.4
14	19	18	1013.4
14	20	19	1013.4
14	21	20	1013.4
14	22	21	1013.4
14	23	22	1013.4
14	24	23	1013.4
14	25	24	1013.4
14	26	25	1013.4
14	27	26	1013.4
14	28	27	1013.4
14	29	28	1013.4
14	30	29	1013.4
14	31	30	1013.4
14	32	31	1013.4
14	33	32	1013.4
14	34	33	1013.4
14	35	34	1013.4
14	36	35	1013.4
14	37	36	1013.4
14	38	37	1013.4
14	39	38	1013.4
14	40	39	1013.4
13	16	15	2774.4273071429
13	17	16	2748.7788840879
13	18	17	2702.0465996144
13	19	18	2636.0018628406
13	20	19	2550.6092976852
13	21	20	2439.5318140823
13	22	21	2306.748645788
13	23	22	2167.0764506437
13	24	23	2032.6275423161
13	25	24	1894.5704867683
13	26	25	1759.1804066839
13	27	26	1623.4063042645
13	28	27	1493.0329086305
13	29	28	1429.2129177031
13	30	29	1381.3246339573
13	31	30	1243.7591098413
13	32	31	1109.582200955
13	33	32	970.29555142027
13	34	33	841.32910535916
13	35	34	710.08406604204
13	36	35	576.3024963174
13	37	36	446.91446018657
13	38	37	315.96824450048
13	39	38	175.74489931632
13	40	39	48.05888181414
vector 73 Scenario.node[14].veinsmobility acceleration ETV
vector 74 Scenario.node[14].veinsmobility co2emission ETV
vector 75 Scenario.node[15].veinsmobility posx ETV
vector 76 Scenario.node[15].veinsmobility posy ETV
vector 77 Scenario.node[15].veinsmobility speed ETV
vector 78 Scenario.node[15].veinsmobility acceleration ETV
vector 79 Scenario.node[15].veinsmobility co2emission ETV
vector 80 Scenario.node[16].veinsmobility posx ETV
vector 81 Scenario.node[16].veinsmobility posy ETV
vector 82 Scenario.node[17].veinsmobility posx ETV
vector 83 Scenario.node[17].veinsmobility posy ETV
vector 84 Scenario.node[16].veinsmobility speed ETV
26	21	20	3.8908812306683
26	22	21	5.4231236480112
26	23	22	6.7054991951783
26	24	23	8.5382908044007
26	25	24	3.6888846585337
26	26	25	0.973
26	27	26	0.973
26	28	27	5.081941889616
26	29	28	0.973
26	30	29	3.5107360167579
26	31	30	0.973
26	32	31	1.5264943807192
26	33	32	1.7638710114771
26	34	33	4.0337365987937
26	35	34	0.973
26	36	35	0.973
26	37	36	2.9090793137872
26	38	37	1.6403933153336
26	39	38	0.973
26	40	39	4.2638361921796
26	41	40	2.9855015102634
26	42	41	0.973
26	43	42	3.9678204763023
26	44	43	2.3773396831194
26	45	44	2.3197487729887
26	46	45	0.973
25	21	20	2.4260216072435
25	22	21	2.4152555802604
25	23	22	2.3158737235237
25	24	23	2.4212151346728
25	25	24	0.62337779221159
25	26	25	-0.53377331842203
25	27	26	-0.49907593920361
25	28	27	1.091753921099
25	29	28	-0.69421488153748
25	30	29	0.56777869495563
25	31	30	-0.54216331988573
25	32	31	-0.099443940608761
25	33	32	-0.01302237501368
25	34	33	0.73949636414181
25	35	34	-0.82864982441533
25	36	35	-0.24148324795533
25	37	36	0.3981098117074
25	38	37	-0.05806861454621
25	39	38	-0.43905806983821
25	40	39	0.84981478857808
25	41	40	0.37858344872948
25	42	41	-1.1649683014257
25	43	42	0.74965050900355
25	44	43	0.18279965184629
25	45	44	0.1560730997473
25	46	45	-0.8981407036772
24	20	19	1.9554947123397
24	21	20	4.3815163195832
24	22	21	6.7967718998436
24	23	22	9.1126456233673
24	24	23	11.53386075804
24	25	24	12.157238550252
24	26	25	11.62346523183
24	27	26	11.124389292626
24	28	27	12.216143213725
24	29	28	11.521928332188
24	30	29	12.089707027143
24	31	30	11.547543707257
24	32	31	11.448099766649
24	33	32	11.435077391635
24	34	33	12.174573755777
24	35	34	11.345923931362
24	36	35	11.104440683406
24	37	36	11.502550495114
24	38	37	11.444481880567
24	39	38	11.005423810729
24	40	39	11.855238599307
24	41	40	12.233822048037
24	42	41	11.068853746611
24	43	42	11.818504255615
24	44	43	12.001303907461
24	45	44	12.157377007208
24	46	45	11.259236303531
21	19	18	1013.4
21	20	19	1013.4
21	21	20	1013.4
21	22	21	1013.4
21	23	22	1013.4
21	24	23	1013.4
21	25	24	1013.4
21	26	25	1013.4
21	27	26	1013.4
21	28	27	1013.4
21	29	28	1013.4
21	30	29	1013.4
21	31	30	1013.4
21	32	31	1013.4
21	33	32	1013.4
21	34	33	1013.4
21	35	34	1013.4
21	36	35	1013.4
21	37	36	1013.4
21	38	37	1013.4
21	39	38	1013.4
21	40	39	1013.4
21	41	40	1013.4
21	42	41	1013.4
21	43	42	1013.4
21	44	43	1013.4
21	45	44	1013.4
21	46	45	1013.4
20	19	18	2774.4273071429
20	20	19	2755.0362025407
20	21	20	2711.5881478194
20	22	21	2644.1899012094
20	23	22	2553.8269544983
20	24	23	2439.45471968
20	25	24	2318.9009370932
20	26	25	2203.6401651118
20	27	26	2093.3283370884
20	28	27	1972.1904432361
20	29	28	1857.9365329095
20	30	29	1738.0524073769
20	31	30	1623.544489502
20	32	31	1510.0226790517
20	33	32	1432.6837463953
20	34	33	1420.5020321271
20	35	34	1314.9265023125
20	36	35	1204.3048573987
20	37	36	1089.7172709771
20	38	37	975.70815994591
20	39	38	866.07291404512
20	40	39	747.97187392158
20	41	40	626.09941252347
20	42	41	515.83228213214
20	43	42	398.09718691659
20	44	43	278.54105462646
20	45	44	157.43013326472
20	46	45	45.266425440108
vector 85 Scenario.node[16].veinsmobility acceleration ETV
vector 86 Scenario.node[16].veinsmobility co2emission ETV
vector 87 Scenario.node[17].veinsmobility speed ETV
34	24	23	3.3462693800291
34	25	24	4.3352803819859
34	26	25	6.2697680795082
34	27	26	6.9664996839363
34	28	27	5.5897427033966
34	29	28	10.275752918996
34	30	29	6.1998057828726
34	31	30	1.9898499390331
34	32	31	0.973
34	33	32	0.973
34	34	33	0.973
34	35	34	5.5900200532346
34	36	35	0.973
34	37	36	2.944744185416
34	38	37	0.973
34	39	38	3.7262965925757
34	40	39	0.973
34	41	40	4.5871555977948
34	42	41	2.9142097382329
34	43	42	0.973
34	44	43	3.7451579827691
34	45	44	1.7034087071563
34	46	45	0.973
34	47	46	0.973
33	24	23	2.2774684745353
33	25	24	2.0853483918821
33	26	25	2.3831907437881
33	27	26	2.1138634649105
33	28	27	1.341724698199
33	29	28	2.4239473111462
33	30	29	1.1020364324357
33	31	30	-0.046899290693855
33	32	31	-1.1588835314367
33	33	32	-0.38564804556552
33	34	33	-0.98617479800076
33	35	34	1.0853296114971
33	36	35	-2.0683561382038
33	37	36	0.37872906655132
33	38	37	-0.39826004831392
33	39	38	0.62961016744971
33	40	39	-1.5628861408486
33	41	40	0.98523248759777
33	42	41	0.36691672330709
33	43	42	-0.27851717807983
33	44	43	0.62492740253188
33	45	44	-0.058331755711913
33	46	45	-0.52587049141695
33	47	46	-0.61938175213171
32	23	22	1.4596124283038
32	24	23	3.7370809028391
32	25	24	5.8224292947212
32	26	25	8.2056200385094
32	27	26	10.31948350342
32	28	27	11.661208201619
32	29	28	14.085155512765
32	30	29	15.187191945201
32	31	30	15.140292654507
32	32	31	13.98140912307
32	33	32	13.595761077505
32	34	33	12.609586279504
32	35	34	13.694915891001
32	36	35	11.626559752797
32	37	36	12.005288819349
32	38	37	11.607028771035
32	39	38	12.236638938484
32	40	39	10.673752797636
32	41	40	11.658985285234
32	42	41	12.025902008541
32	43	42	11.747384830461
32	44	43	12.372312232993
32	45	44	12.313980477281
32	46	45	11.788109985864
32	47	46	11.168728233732
29	22	21	1013.4
29	23	22	1013.4
29	24	23	1013.4
29	25	24	1013.4
29	26	25	1013.4
29	27	26	1013.4
29	28	27	1013.4
29	29	28	1013.4
29	30	29	1013.4
29	31	30	1013.4
29	32	31	1013.4
29	33	32	1013.4
29	34	33	1013.4
29	35	34	1013.4
29	36	35	1013.4
29	37	36	1013.4
29	38	37	1013.4
29	39	38	1013.4
29	40	39	1013.4
29	41	40	1013.4
29	42	41	1013.4
29	43	42	1013.4
29	44	43	1013.4
29	45	44	1013.4
29	46	45	1013.4
29	47	46	1013.4
28	22	21	2774.4273071429
28	23	22	2759.9534775297
28	24	23	2722.8957824941
28	25	24	2665.1593259442
28	26	25	2583.7906392952
28	27	26	2481.4604295574
28	28	27	2365.8253901998
28	29	28	2226.1539698876
28	30	29	2075.5545201608
28	31	30	1925.4201338502
28	32	31	1786.7774849696
28	33	32	1651.9590047477
28	34	33	1526.919645146
28	35	34	1432.1275553483
28	36	35	1420.4941764989
28	37	36	1308.2797450604
28	38	37	1192.6513535169
28	39	38	1070.7508304573
28	40	39	964.4196674982
28	41	40	848.27368887137
28	42	41	728.47251205529
28	43	42	611.44590347315
28	44	43	488.19381274467
28	45	44	365.52281880003
28	46	45	248.09050912871
28	47	46	136.82843623058
vector 88 Scenario.node[18].veinsmobility posx ETV
vector 89 Scenario.node[18].veinsmobility posy ETV
vector 90 Scenario.node[17].veinsmobility acceleration ETV
vector 91 Scenario.node[17].veinsmobility co2emission ETV
vector 92 Scenario.node[19].veinsmobility posx ETV
vector 93 Scenario.node[19].veinsmobility posy ETV
vector 94 Scenario.node[18].veinsmobility speed ETV
vector 95 Scenario.node[18].veinsmobility acceleration ETV
vector 96 Scenario.node[18].veinsmobility co2emission ETV
vector 97 Scenario.node[19].veinsmobility speed ETV
vector 98 Scenario.node[20].veinsmobility posx ETV
vector 99 Scenario.node[20].veinsmobility posy ETV
vector 100 Scenario.node[19].veinsmobility acceleration ETV
vector 101 Scenario.node[19].veinsmobility co2emission ETV
16	16	15	2.9409678137599
16	17	16	4.9463108104029
16	18	17	4.9075368735776
16	19	18	5.2511901420474
16	20	19	7.230544468387
16	21	20	9.9155315668523
16	22	21	0.973
16	23	22	1.7858789884604
16	24	23	5.5350301064449
16	25	24	0.973
16	26	25	0.973
16	27	26	2.050576614564
16	28	27	0.973
16	29	28	0.973
16	30	29	0.973
16	31	30	1.1102833539846
16	32	31	1.1100080059796
16	33	32	0.973
16	34	33	0.973
16	35	34	0.973
16	36	35	0.973
16	37	36	0.973
16	38	37	1.8450742596011
16	39	38	2.4059272429477
16	40	39	3.5355528172054
16	41	40	3.7547341280919
16	42	41	5.8188352497612
16	43	42	7.3774602284328
16	44	43	6.1996380303767
16	45	44	5.8431571389338
16	46	45	2.9902257655406
16	47	46	4.0205405370826
16	48	47	0.973
16	49	48	1.7488505061244
16	50	49	3.6760664384791
16	51	50	1.2556088947772
15	16	15	1.6113100742921
15	17	16	2.2573162979912
15	18	17	1.7090322415344
15	19	18	1.5384176130407
15	20	19	1.9341500595678
15	21	20	2.3424416411202
15	22	21	-0.79475037742321
15	23	22	-0.052206939528697
15	24	23	1.0222107653972
15	25	24	-0.53008473640164
15	26	25	-4.5
15	27	26	0.18676265172378
15	28	27	-4.5
15	29	28	-3.8406564094025
15	30	29	-0.90580390350479
15	31	30	-0.038158394284525
15	32	31	-0.0070852787738608
15	33	32	-0.00017205154581859
15	34	33	0
15	35	34	0
15	36	35	0
15	37	36	0
15	38	37	1.6487449898385
15	39	38	1.5024545326829
15	40	39	1.8164076185087
15	41	40	1.4846706941957
15	42	41	2.0658140351297
15	43	42	2.1855615584878
15	44	43	1.4767944908468
15	45	44	1.199102081634
15	46	45	0.29850560515188
15	47	46	0.56966183844488
15	48	47	-1.0439964302583
15	49	48	-0.064589293487371
15	50	49	0.50860900017433
15	51	50	-0.22422621767037
12	15	14	2.5672767461976
12	16	15	4.1785868204897
12	17	16	6.4359031184809
12	18	17	8.1449353600154
12	19	18	9.683352973056
12	20	19	11.617503032624
12	21	20	13.959944673744
12	22	21	13.165194296321
12	23	22	13.112987356792
12	24	23	14.135198122189
12	25	24	13.605113385788
12	26	25	9.1051133857877
12	27	26	9.2918760375115
12	28	27	4.7918760375115
12	29	28	0.95121962810899
12	30	29	0.045415724604204
12	31	30	0.0072573303196794
12	32	31	0.00017205154581859
12	33	32	0
12	34	33	0
12	35	34	0
12	36	35	0
12	37	36	0
12	38	37	1.6487449898385
12	39	38	3.1511995225213
12	40	39	4.96760714103
12	41	40	6.4522778352257
12	42	41	8.5180918703554
12	43	42	10.703653428843
12	44	43	12.18044791969
12	45	44	13.379550001324
12	46	45	13.678055606476
12	47	46	14.247717444921
12	48	47	13.203721014663
12	49	48	13.139131721175
12	50	49	13.64774072135
12	51	50	13.423514503679
11	14	13	59.632292857143
11	15	14	77.634587532212
11	16	15	106.93573372895
11	17	16	152.06566551783
11	18	17	209.17969760555
11	19	18	277.08144365683
11	20	19	358.54586438652
11	21	20	456.43598785553
11	22	21	548.7531513744
11	23	22	640.70422864609
11	24	23	739.8232668499
11	25	24	835.22523729249
11	26	25	899.07224344935
11	27	26	964.22886934068
11	28	27	997.83053094629
11	29	28	1004.5006868114
11	30	29	1004.8191516042
11	31	30	1004.8700415596
11	32	31	1004.8712480219
11	33	32	1004.8712480219
11	34	33	1004.8712480219
11	35	34	1004.8712480219
11	36	35	1004.8712480219
11	37	36	1004.8712480219
11	38	37	1006.629068576
11	39	38	1008.7650679224
11	40	39	1011.6647407844
11	41	40	1013.4
11	42	41	1013.4
11	43	42	1013.4
11	44	43	1013.4
11	45	44	1013.4
11	46	45	1013.4
11	47	46	1013.4
11	48	47	1013.4
11	49	48	1013.4
11	50	49	1013.4
11	51	50	1013.4
10	14	13	2378.1077071429
10	15	14	2360.1054124678
10	16	15	2330.8042662711
10	17	16	2285.6743344822
10	18	17	2228.5603023944
10	19	18	2160.6585563432
10	20	19	2079.1941356135
10	21	20	1981.3040121445
10	22	21	1888.9868486256
10	23	22	1797.0357713539
10	24	23	1697.9167331501
10	25	24	1602.5147627075
10	26	25	1538.6677565506
10	27	26	1473.5111306593
10	28	27	1439.9094690537
10	29	28	1433.2393131886
10	30	29	1432.9208483958
10	31	30	1432.8699584404
10	32	31	1432.8687519781
10	33	32	1432.8687519781
10	34	33	1432.8687519781
10	35	34	1432.8687519781
10	36	35	1432.8687519781
10	37	36	1432.8687519781
10	38	37	1431.0219753166
10	39	38	1428.7048532187
10	40	39	1424.68204728
10	41	40	1408.7242754972
10	42	41	1323.8676527198
10	43	42	1217.2386218084
10	44	43	1095.8978696644
10	45	44	962.61174823335
10	46	45	826.35193528561
10	47	46	684.41719179341
10	48	47	552.88266616827
10	49	48	421.99157447133
10	50	49	286.03375624387
10	51	50	152.30966358069
vector 102 Scenario.node[21].veinsmobility posx ETV
vector 103 Scenario.node[21].veinsmobility posy ETV
vector 104 Scenario.node[20].veinsmobility speed ETV
vector 105 Scenario.node[20].veinsmobility acceleration ETV
vector 106 Scenario.node[20].veinsmobility co2emission ETV
vector 107 Scenario.node[21].veinsmobility speed ETV
vector 108 Scenario.node[21].veinsmobility acceleration ETV
vector 109 Scenario.node[21].veinsmobility co2emission ETV
vector 110 Scenario.node[22].veinsmobility posx ETV
vector 111 Scenario.node[22].veinsmobility posy ETV
vector 112 Scenario.node[23].veinsmobility posx ETV
vector 113 Scenario.node[23].veinsmobility posy ETV
vector 114 Scenario.node[22].veinsmobility speed ETV
vector 115 Scenario.node[23].veinsmobility speed ETV
vector 116 Scenario.node[22].veinsmobility acceleration ETV
vector 117 Scenario.node[22].veinsmobility co2emission ETV
vector 118 Scenario.node[23].veinsmobility acceleration ETV
vector 119 Scenario.node[23].veinsmobility co2emission ETV
vector 120 Scenario.node[24].veinsmobility posx ETV
vector 121 Scenario.node[24].veinsmobility posy ETV
39	28	27	2.5050898753024
39	29	28	2.8841532055152
39	30	29	3.3342240776964
39	31	30	3.8853561227769
39	32	31	5.7054161615932
39	33	32	2.8920138206334
39	34	33	1.4430164006067
39	35	34	4.2117847045239
39	36	35	0.973
39	37	36	4.0971448006333
39	38	37	0.973
39	39	38	2.906681371497
39	40	39	3.497726551432
39	41	40	1.6334554235377
39	42	41	0.973
39	43	42	2.6820499251702
39	44	43	1.7820453404258
39	45	44	0.973
39	46	45	3.2308709046658
39	47	46	0.973
39	48	47	1.5596748634004
39	49	48	0.973
39	50	49	0.973
39	51	50	3.647028305148
39	52	51	0.973
39	53	52	3.0681543280595
39	54	53	1.844938510581
39	55	54	1.7965994486489
39	56	55	0.973
39	57	56	1.8958368535782
39	58	57	3.8484873489195
38	28	27	1.6911603907123
38	29	28	1.4325907391496
38	30	29	1.3639506941196
38	31	30	1.3737010220066
38	32	31	1.865669381828
38	33	32	0.53268733722251
38	34	33	-0.090060673467814
38	35	34	0.98147378626745
38	36	35	-1.1260618436849
38	37	36	0.95686576238368
38	38	37	-1.0024868369335
38	39	38	0.51851690863259
38	40	39	0.69556676228531
38	41	40	-0.036154628265649
38	42	41	-0.46849067592993
38	43	42	0.38314973879605
38	44	43	0.024478456936777
38	45	44	-0.50634872820228
38	46	45	0.59170010082889
38	47	46	-0.44980364656076
38	48	47	-0.053034808533265
38	49	48	-0.20746903589461
38	50	49	-0.45114984600805
38	51	50	0.79436285241973
38	52	51	-0.59589621133637
38	53	52	0.56136613597628
38	54	53	0.058822316396981
38	55	54	0.037835260783323
38	56	55	-0.79967764429748
38	57	56	0.10642343133222
38	58	57	0.85113448719494
37	27	26	1.3637467617635
37	28	27	3.0549071524758
37	29	28	4.4874978916254
37	30	29	5.8514485857449
37	31	30	7.2251496077515
37	32	31	9.0908189895796
37	33	32	9.6235063268021
37	34	33	9.5334456533343
37	35	34	10.514919439602
37	36	35	9.3888575959168
37	37	36	10.345723358301
37	38	37	9.343236521367
37	39	38	9.8617534299996
37	40	39	10.557320192285
37	41	40	10.521165564019
37	42	41	10.052674888089
37	43	42	10.435824626885
37	44	43	10.460303083822
37	45	44	9.9539543556199
37	46	45	10.545654456449
37	47	46	10.095850809888
37	48	47	10.042816001355
37	49	48	9.8353469654601
37	50	49	9.3841971194521
37	51	50	10.178559971872
37	52	51	9.5826637605354
37	53	52	10.144029896512
37	54	53	10.202852212909
37	55	54	10.240687473692
37	56	55	9.4410098293945
37	57	56	9.5474332607267
37	58	57	10.398567747922
36	26	25	1013.4
36	27	26	1013.4
36	28	27	1013.4
36	29	28	1013.4
36	30	29	1013.4
36	31	30	1013.4
36	32	31	1013.4
36	33	32	1013.4
36	34	33	1013.4
36	35	34	1013.4
36	36	35	1013.4
36	37	36	1013.4
36	38	37	1013.4
36	39	38	1013.4
36	40	39	1013.4
36	41	40	1013.4
36	42	41	1013.4
36	43	42	1013.4
36	44	43	1013.4
36	45	44	1013.4
36	46	45	1013.4
36	47	46	1013.4
36	48	47	1013.4
36	49	48	1013.4
36	50	49	1013.4
36	51	50	1013.4
36	52	51	1013.4
36	53	52	1013.4
36	54	53	1013.4
36	55	54	1013.4
36	56	55	1013.4
36	57	56	1013.4
36	58	57	1013.4
35	26	25	2774.4273071429
35	27	26	2760.9041020218
35	28	27	2730.6109880749
35	29	28	2686.1119973748
35	30	29	2628.0877793167
35	31	30	2556.4416475599
35	32	31	2466.2951384266
35	33	32	2370.8663875101
35	34	33	2276.3306975304
35	35	34	2172.0625031703
35	36	35	2078.9605793511
35	37	36	1976.3701695895
35	38	37	1883.7206341215
35	39	38	1785.9293738768
35	40	39	1681.2407245672
35	41	40	1576.9105922989
35	42	41	1477.226113964
35	43	42	1430.3742779033
35	44	43	1419.9078397443
35	45	44	1322.8773714213
35	46	45	1217.8223149871
35	47	46	1117.2481703512
35	48	47	1017.2023546898
35	49	48	919.22333074462
35	50	49	825.73862934043
35	51	50	724.34054194064
35	52	51	628.87873003417
35	53	52	527.82462877869
35	54	53	426.18454380885
35	55	54	324.16754667361
35	56	55	230.11688111102
35	57	56	135.00603292718
35	58	57	31.416243777225
vector 122 Scenario.node[24].veinsmobility speed ETV
46	31	30	2.8393212342159
46	32	31	3.0536859737002
46	33	32	3.4199003585206
46	34	33	3.8402018492489
46	35	34	5.9243910321423
46	36	35	7.0911579077746
46	37	36	3.4627318615179
46	38	37	5.1104445152853
46	39	38	0.973
46	40	39	2.7737654030884
46	41	40	4.1512682766075
46	42	41	0.973
46	43	42	0.973
46	44	43	0.973
46	45	44	3.115603928298
46	46	45	0.973
46	47	46	1.9506823758074
46	48	47	1.378125677635
46	49	48	3.7979879744855
46	50	49	0.973
46	51	50	0.973
46	52	51	3.9462204530137
46	53	52	0.973
46	54	53	3.3952703032143
46	55	54	0.973
46	56	55	2.2105163625956
46	57	56	1.4258870378129
46	58	57	3.017656190183
46	59	58	4.2737564880002
45	31	30	2.0975796846906
45	32	31	1.5276684005279
45	33	32	1.3773182639852
45	34	33	1.3216329743853
45	35	34	1.9225898718229
45	36	35	1.9617264288943
45	37	36	0.5735939222176
45	38	37	1.0302410238282
45	39	38	-2.7256641964289
45	40	39	0.41360860766684
45	41	40	0.85913442959592
45	42	41	-0.35284685579716
45	43	42	-0.55810360043857
45	44	43	-0.46164962876177
45	45	44	0.54575122356689
45	46	45	-0.38332101229706
45	47	46	0.099120658366706
45	48	47	-0.12983650531884
45	49	48	0.77603279094967
45	50	49	-1.0126977549396
45	51	50	-0.49974047829527
45	52	51	0.90130640652255
45	53	52	-0.37495544294522
45	54	53	0.65302479153702
45	55	54	-1.2400697055383
45	56	55	0.24115748468359
45	57	56	-0.096490544026148
45	58	57	0.54992057614097
45	59	58	0.94863789492488
44	30	29	1.0202541800766
44	31	30	3.1178338647671
44	32	31	4.645502265295
44	33	32	6.0228205292803
44	34	33	7.3444535036655
44	35	34	9.2670433754884
44	36	35	11.228769804383
44	37	36	11.8023637266
44	38	37	12.832604750429
44	39	38	10.106940554
44	40	39	10.520549161666
44	41	40	11.379683591262
44	42	41	11.026836735465
44	43	42	10.468733135027
44	44	43	10.007083506265
44	45	44	10.552834729832
44	46	45	10.169513717535
44	47	46	10.268634375901
44	48	47	10.138797870583
44	49	48	10.914830661532
44	50	49	9.9021329065926
44	51	50	9.4023924282974
44	52	51	10.30369883482
44	53	52	9.9287433918747
44	54	53	10.581768183412
44	55	54	9.3416984778734
44	56	55	9.582855962557
44	57	56	9.4863654185308
44	58	57	10.036285994672
44	59	58	10.984923889597
41	29	28	1013.4
41	30	29	1013.4
41	31	30	1013.4
41	32	31	1013.4
41	33	32	1013.4
41	34	33	1013.4
41	35	34	1013.4
41	36	35	1013.4
41	37	36	1013.4
41	38	37	1013.4
41	39	38	1013.4
41	40	39	1013.4
41	41	40	1013.4
41	42	41	1013.4
41	43	42	1013.4
41	44	43	1013.4
41	45	44	1013.4
41	46	45	1013.4
41	47	46	1013.4
41	48	47	1013.4
41	49	48	1013.4
41	50	49	1013.4
41	51	50	1013.4
41	52	51	1013.4
41	53	52	1013.4
41	54	53	1013.4
41	55	54	1013.4
41	56	55	1013.4
41	57	56	1013.4
41	58	57	1013.4
41	59	58	1013.4
40	29	28	2774.4273071429
40	30	29	2764.3102480673
40	31	30	2733.393139357
40	32	31	2687.3273434296
40	33	32	2627.6037644569
40	34	33	2554.774589703
40	35	34	2462.8806017967
40	36	35	2351.5337142515
40	37	36	2234.4989464606
40	38	37	2107.2480879114
40	39	38	2007.025499605
40	40	39	1902.7014797145
40	41	40	1789.8580987199
40	42	41	1680.5136227575
40	43	42	1576.7034216906
40	44	43	1477.4710372674
40	45	44	1430.2819129341
40	46	45	1420.1064346923
40	47	46	1321.7197805581
40	48	47	1220.7178003712
40	49	48	1111.9850369518
40	50	49	1013.3406962316
40	51	50	919.67473446031
40	52	51	817.03002264632
40	53	52	718.12059017242
40	54	53	612.70577136986
40	55	54	519.64443839746
40	56	55	424.18071178818
40	57	56	329.67821708631
40	58	57	229.69745288496
40	59	58	120.26642573422
vector 123 Scenario.node[24].veinsmobility acceleration ETV
vector 124 Scenario.node[24].veinsmobility co2emission ETV
vector 125 Scenario.node[25].veinsmobility posx ETV
vector 126 Scenario.node[25].veinsmobility posy ETV
56	34	33	3.4416611220669
56	35	34	5.1423436088414
56	36	35	4.8752189200355
56	37	36	4.7600939569743
56	38	37	6.3577713380807
56	39	38	6.6556054905595
56	40	39	0.973
56	41	40	2.8163624350619
56	42	41	0.973
56	43	42	0.973
56	44	43	2.7684411581037
56	45	44	0.973
56	46	45	3.2262304793017
56	47	46	1.2630835672388
56	48	47	0.973
56	49	48	0.973
56	50	49	2.4131970189634
56	51	50	2.2134550379544
56	52	51	0.973
56	53	52	3.5565676038884
56	54	53	0.973
56	55	54	0.973
56	56	55	0.973
56	57	56	5.090291275677
56	58	57	0.973
56	59	58	1.3055849840162
56	60	59	5.5590934773719
56	61	60	5.8302202609365
55	34	33	2.4642046541208
55	35	34	2.512029569014
55	36	35	1.7555973932613
55	37	36	1.3972095129546
55	38	37	1.7294802068034
55	39	38	1.5673873260152
55	40	39	-0.54225738249865
55	41	40	0.31422701677963
55	42	41	-0.31716958730045
55	43	42	-0.96995358466966
55	44	43	0.35223200582059
55	45	44	-1.0468420997411
55	46	45	0.55714631452162
55	47	46	-0.18534843788058
55	48	47	-0.61063691316511
55	49	48	-0.2360374061429
55	50	49	0.29057428542426
55	51	50	0.19907783972344
55	52	51	-0.43368361040165
55	53	52	0.70806232746903
55	54	53	-0.49601529212527
55	55	54	-0.36284811557953
55	56	55	-0.98496057090493
55	57	56	1.3790298709823
55	58	57	-0.8036609410889
55	59	58	-0.14525680119008
55	60	59	1.4764957426763
55	61	60	1.3635596693028
54	33	32	1.1601757370042
54	34	33	3.6243803911251
54	35	34	6.1364099601391
54	36	35	7.8920073534003
54	37	36	9.2892168663549
54	38	37	11.018697073158
54	39	38	12.586084399173
54	40	39	12.043827016675
54	41	40	12.358054033454
54	42	41	12.040884446154
54	43	42	11.070930861484
54	44	43	11.423162867305
54	45	44	10.376320767564
54	46	45	10.933467082085
54	47	46	10.748118644205
54	48	47	10.13748173104
54	49	48	9.9014443248968
54	50	49	10.192018610321
54	51	50	10.391096450045
54	52	51	9.9574128396429
54	53	52	10.665475167112
54	54	53	10.169459874987
54	55	54	9.8066117594071
54	56	55	8.8216511885022
54	57	56	10.200681059484
54	58	57	9.3970201183955
54	59	58	9.2517633172055
54	60	59	10.728259059882
54	61	60	12.091818729185
49	32	31	1013.4
49	33	32	1013.4
49	34	33	1013.4
49	35	34	1013.4
49	36	35	1013.4
49	37	36	1013.4
49	38	37	1013.4
49	39	38	1013.4
49	40	39	1013.4
49	41	40	1013.4
49	42	41	1013.4
49	43	42	1013.4
49	44	43	1013.4
49	45	44	1013.4
49	46	45	1013.4
49	47	46	1013.4
49	48	47	1013.4
49	49	48	1013.4
49	50	49	1013.4
49	51	50	1013.4
49	52	51	1013.4
49	53	52	1013.4
49	54	53	1013.4
49	55	54	1013.4
49	56	55	1013.4
49	57	56	1013.4
49	58	57	1013.4
49	59	58	1013.4
49	60	59	1013.4
49	61	60	1013.4
48	32	31	2774.4273071429
48	33	32	2762.9227559256
48	34	33	2726.9826233143
48	35	34	2666.1326672046
48	36	35	2587.8738311438
48	37	36	2495.7599661506
48	38	37	2386.4962048238
48	39	38	2261.6898949035
48	40	39	2142.260725386
48	41	40	2019.7156134359
48	42	41	1900.3156230783
48	43	42	1790.5339003135
48	44	43	1677.2593695007
48	45	44	1574.3655492722
48	46	45	1465.9469468004
48	47	46	1428.9236867016
48	48	47	1410.8116615432
48	49	48	1312.1741804246
48	50	49	1210.6420190299
48	51	50	1107.1266584157
48	52	51	1007.931622951
48	53	52	901.68292115587
48	54	53	800.37548827125
48	55	54	702.6827223963
48	56	55	614.80206337439
48	57	56	513.18360727988
48	58	57	419.57116407614
48	59	58	327.40575875038
48	60	59	220.53160830006
48	61	60	100.07377382126
vector 127 Scenario.node[25].veinsmobility speed ETV
vector 128 Scenario.node[25].veinsmobility acceleration ETV
vector 129 Scenario.node[25].veinsmobility co2emission ETV
67	38	37	3.2826885440224
67	39	38	3.093447658909
67	40	39	5.2165727279878
67	41	40	5.5288738962226
67	42	41	6.9964715611062
67	43	42	6.2932008915098
67	44	43	4.3758710937927
67	45	44	2.9451836827403
67	46	45	0.973
67	47	46	1.6987874982079
67	48	47	6.3228176371494
67	49	48	1.4928816947598
67	50	49	2.3052386818938
67	51	50	0.973
67	52	51	3.8322936521266
67	53	52	0.973
67	54	53	4.6047295001144
67	55	54	0.973
67	56	55	1.446043181739
67	57	56	0.973
67	58	57	2.5544901752039
67	59	58	3.2810139856876
67	60	59	0.973
67	61	60	3.8037590751247
67	62	61	7.5981475100823
67	63	62	5.6052621941183
66	38	37	2.2839496216737
66	39	38	1.4218395331874
66	40	39	2.1490274593001
66	41	40	1.8063009320293
66	42	41	1.9786337813362
66	43	42	1.4684692201903
66	44	43	0.75919432693813
66	45	44	0.2940713304095
66	46	45	-0.28817217182368
66	47	46	-0.0802025918616
66	48	47	1.2272555201314
66	49	48	-0.16544121019542
66	50	49	0.069593214675582
66	51	50	-1.982155621854
66	52	51	0.61227262078677
66	53	52	-1.8309813698652
66	54	53	0.95160454287249
66	55	54	-1.8182337859471
66	56	55	-0.10107967447258
66	57	56	-0.88065123934737
66	58	57	0.38871678592134
66	59	58	0.6392536639112
66	60	59	-0.78962318952401
66	61	60	0.84477245411544
66	62	61	1.9421823275678
66	63	62	1.126940828037
64	37	36	1.3379001913592
64	38	37	3.6218498130329
64	39	38	5.0436893462203
64	40	39	7.1927168055205
64	41	40	8.9990177375497
64	42	41	10.977651518886
64	43	42	12.446120739076
64	44	43	13.205315066014
64	45	44	13.499386396424
64	46	45	13.2112142246
64	47	46	13.131011632739
64	48	47	14.35826715287
64	49	48	14.192825942675
64	50	49	14.26241915735
64	51	50	12.280263535496
64	52	51	12.892536156283
64	53	52	11.061554786418
64	54	53	12.01315932929
64	55	54	10.194925543343
64	56	55	10.093845868871
64	57	56	9.2131946295233
64	58	57	9.6019114154446
64	59	58	10.241165079356
64	60	59	9.4515418898318
64	61	60	10.296314343947
64	62	61	12.238496671515
64	63	62	13.365437499552
61	36	35	1013.4
61	37	36	1013.4
61	38	37	1013.4
61	39	38	1013.4
61	40	39	1013.4
61	41	40	1013.4
61	42	41	1013.4
61	43	42	1013.4
61	44	43	1013.4
61	45	44	1013.4
61	46	45	1013.4
61	47	46	1013.4
61	48	47	1013.4
61	49	48	1013.4
61	50	49	1013.4
61	51	50	1013.4
61	52	51	1013.4
61	53	52	1013.4
61	54	53	1013.4
61	55	54	1013.4
61	56	55	1013.4
61	57	56	1013.4
61	58	57	1013.4
61	59	58	1013.4
61	60	59	1013.4
61	61	60	1013.4
61	62	61	1013.4
61	63	62	1013.4
60	36	35	2774.4273071429
60	37	36	2761.1604021524
60	38	37	2725.2453632957
60	39	38	2675.231058948
60	40	39	2603.906537808
60	41	40	2514.6703495616
60	42	41	2405.8136047464
60	43	42	2282.3952044718
60	44	43	2151.4484705669
60	45	44	2017.5856623343
60	46	45	1886.5804311086
60	47	46	1756.3705059702
60	48	47	1613.9908521108
60	49	48	1473.2517487434
60	50	49	1426.1444093574
60	51	50	1361.7946890487
60	52	51	1233.3601647552
60	53	52	1123.165746084
60	54	53	1003.4915109284
60	55	54	901.9303908746
60	56	55	801.3762193179
60	57	56	709.59503250392
60	58	57	613.94147683408
60	59	58	511.91972182532
60	60	59	417.76413662895
60	61	60	315.19298858558
60	62	61	193.27395892228
60	63	62	60.128425225847
vector 130 Scenario.node[26].veinsmobility posx ETV
vector 131 Scenario.node[26].veinsmobility posy ETV
vector 132 Scenario.node[26].veinsmobility speed ETV
vector 133 Scenario.node[26].veinsmobility acceleration ETV
vector 134 Scenario.node[26].veinsmobility co2emission ETV
31	22	21	3.4637646802335
31	23	22	4.1216108381535
31	24	23	5.1000096486744
31	25	24	5.2384357254024
31	26	25	6.3961705987203
31	27	26	6.2269023296089
31	28	27	1.9304063488139
31	29	28	1.168082773274
31	30	29	2.2987835419316
31	31	30	1.3456653329582
31	32	31	0.973
31	33	32	0.973
31	34	33	0.973
31	35	34	0.973
31	36	35	0.973
31	37	36	0.973
31	38	37	1.1100272950004
31	39	38	1.3695496700334
31	40	39	2.2345663561621
31	41	40	1.3464588531403
31	42	41	0.973
31	43	42	0.973
31	44	43	1.1127419866649
31	45	44	1.1107140804541
31	46	45	1.1100509152436
31	47	46	1.1100191673261
31	48	47	1.1100060653693
31	49	48	0.973
31	50	49	0.973
31	51	50	0.973
31	52	51	2.4500178250877
31	53	52	3.2091268704508
31	54	53	3.4394749631628
31	55	54	5.3256270855702
31	56	55	5.9637670227598
31	57	56	6.1882062609137
31	58	57	4.7345520818168
31	59	58	3.5575177646947
31	60	59	2.350130090089
31	61	60	1.4344651974378
31	62	61	0.973
31	63	62	4.2088598432703
31	64	63	0.973
31	65	64	1.9079688957372
31	66	65	2.6227042265297
30	22	21	2.2205611141864
30	23	22	1.8968547896016
30	24	23	1.8946923216572
30	25	24	1.5876525437925
30	26	25	1.7236262955237
30	27	26	1.4301968531549
30	28	27	0.010164933884516
30	29	28	-0.23887888470199
30	30	29	0.13601736275014
30	31	30	-0.17843662551604
30	32	31	-0.44855836007497
30	33	32	-3.6854164298667
30	34	33	-3.8294016422185
30	35	34	-3.7521295463225
30	36	35	-0.46005751020608
30	37	36	-0.10715562131359
30	38	37	-0.0028736405672687
30	39	38	0.94203479207583
30	40	39	1.6189579995349
30	41	40	0.15780257731192
30	42	41	-1.6922541880806
30	43	42	-0.88199773045791
30	44	43	-0.062483196244804
30	45	44	-0.06129765521907
30	46	45	-0.020162973424602
30	47	46	-0.00077480698681509
30	48	47	-0.00027297171614328
30	49	48	-0.00012590489396644
30	50	49	0
30	51	50	0
30	52	51	2.2591196405469
30	53	52	1.8916518694023
30	54	53	1.4985727415653
30	55	54	2.049248764175
30	56	55	1.8696356835775
30	57	56	1.6329223674722
30	58	57	0.97785915253737
30	59	58	0.53653928244021
30	60	59	0.13688898866531
30	61	60	-0.15591777958907
30	62	61	-0.5015727551654
30	63	62	0.73059451654553
30	64	63	-0.63987409304827
30	65	64	0.011135452263987
30	66	65	0.240244137845
27	21	20	1.8037161043379
27	22	21	4.0242772185244
27	23	22	5.921132008126
27	24	23	7.8158243297832
27	25	24	9.4034768735757
27	26	25	11.127103169099
27	27	26	12.557300022254
27	28	27	12.567464956139
27	29	28	12.328586071437
27	30	29	12.464603434187
27	31	30	12.286166808671
27	32	31	11.837608448596
27	33	32	8.1521920187292
27	34	33	4.3227903765107
27	35	34	0.57066083018818
27	36	35	0.1106033199821
27	37	36	0.0034476986685104
27	38	37	0.00057405810124167
27	39	38	0.94260885017707
27	40	39	2.561566849712
27	41	40	2.7193694270239
27	42	41	1.0271152389433
27	43	42	0.1451175084854
27	44	43	0.082634312240596
27	45	44	0.021336657021527
27	46	45	0.0011736835969248
27	47	46	0.00039887661010972
27	48	47	0.00012590489396644
27	49	48	0
27	50	49	0
27	51	50	0
27	52	51	2.2591196405469
27	53	52	4.1507715099491
27	54	53	5.6493442515144
27	55	54	7.6985930156894
27	56	55	9.5682286992669
27	57	56	11.201151066739
27	58	57	12.179010219276
27	59	58	12.715549501717
27	60	59	12.852438490382
27	61	60	12.696520710793
27	62	61	12.194947955628
27	63	62	12.925542472173
27	64	63	12.285668379125
27	65	64	12.296803831389
27	66	65	12.537047969234
23	20	19	59.632292857143
23	21	20	72.280336691354
23	22	21	100.49943089277
23	23	22	142.01967734775
23	24	23	196.82591236769
23	25	24	262.76510723596
23	26	25	340.79073903693
23	27	26	428.84521764298
23	28	27	516.97097494364
23	29	28	603.42166231642
23	30	29	690.82613258339
23	31	30	776.97936699582
23	32	31	859.98721406776
23	33	32	917.15213140138
23	34	33	947.4644638337
23	35	34	951.46605985944
23	36	35	952.24163403986
23	37	36	952.26581004172
23	38	37	952.26983546014
23	39	38	958.87961070519
23	40	39	976.84186636255
23	41	40	995.91066750687
23	42	41	1003.1130196585
23	43	42	1004.1306147246
23	44	43	1004.7100642294
23	45	44	1004.8596814405
23	46	45	1004.8679115614
23	47	46	1004.8707085697
23	48	47	1004.8715914418
23	49	48	1004.8715914418
23	50	49	1004.8715914418
23	51	50	1004.8715914418
23	52	51	1007.0428362398
23	53	52	1009.7482508533
23	54	53	1012.692507374
23	55	54	1013.4
23	56	55	1013.4
23	57	56	1013.4
23	58	57	1013.4
23	59	58	1013.4
23	60	59	1013.4
23	61	60	1013.4
23	62	61	1013.4
23	63	62	1013.4
23	64	63	1013.4
23	65	64	1013.4
23	66	65	1013.4
22	20	19	2378.1077071429
22	21	20	2365.4596633086
22	22	21	2337.2405691072
22	23	22	2295.7203226523
22	24	23	2240.9140876323
22	25	24	2174.974892764
22	26	25	2096.9492609631
22	27	26	2008.894782357
22	28	27	1920.7690250564
22	29	28	1834.3183376836
22	30	29	1746.9138674166
22	31	30	1660.7606330042
22	32	31	1577.7527859322
22	33	32	1520.5878685986
22	34	33	1490.2755361663
22	35	34	1486.2739401406
22	36	35	1485.4983659601
22	37	36	1485.4741899583
22	38	37	1485.4701645399
22	39	38	1478.8603892948
22	40	39	1460.8981336374
22	41	40	1441.8293324931
22	42	41	1434.6269803415
22	43	42	1433.6093852754
22	44	43	1433.0299357706
22	45	44	1432.8803185595
22	46	45	1432.8720884386
22	47	46	1432.8692914303
22	48	47	1432.8684085582
22	49	48	1432.8684085582
22	50	49	1432.8684085582
22	51	50	1432.8684085582
22	52	51	1430.5731220907
22	53	52	1427.4318881832
22	54	53	1422.6335057104
22	55	54	1373.4784949991
22	56	55	1278.1604841419
22	57	56	1166.5754172973
22	58	57	1045.2489874221
22	59	58	918.57759153956
22	60	59	790.5425173297
22	61	60	664.06068490311
22	62	61	542.57548443686
22	63	62	413.81215358211
22	64	63	291.42320273701
22	65	64	168.92332131185
22	66	65	44.030144945765
vector 135 Scenario.node[27].veinsmobility posx ETV
vector 136 Scenario.node[27].veinsmobility posy ETV
vector 137 Scenario.node[28].veinsmobility posx ETV
vector 138 Scenario.node[28].veinsmobility posy ETV
vector 139 Scenario.node[27].veinsmobility speed ETV
86	47	46	2.9790381821065
86	48	47	3.8427221184362
86	49	48	5.2440912571821
86	50	49	6.5676396864243
86	51	50	6.5923168063514
86	52	51	9.6332245678312
86	53	52	7.1673655693983
86	54	53	2.6215551960538
86	55	54	0.973
86	56	55	2.7460806637373
86	57	56	0.973
86	58	57	5.5701284423303
86	59	58	2.4383206477663
86	60	59	0.973
86	61	60	0.973
86	62	61	4.8215708277896
86	63	62	0.973
86	64	63	1.8645252107859
86	65	64	4.9106960848649
86	66	65	1.0287720193251
86	67	66	0.973
86	68	67	6.4960804188731
85	47	46	1.7587482709903
85	48	47	1.7705298127374
85	49	48	1.9997930408921
85	50	49	2.0755578669021
85	51	50	1.7241713843774
85	52	51	2.2885093853576
85	53	52	1.3680336886856
85	54	53	0.12027663767804
85	55	54	-0.5387367637828
85	56	55	0.16932763776276
85	57	56	-0.55245428571943
85	58	57	0.92038903161883
85	59	58	0.068213193514383
85	60	59	-0.88714114194736
85	61	60	-0.30126246183645
85	62	61	0.74680670995731
85	63	62	-0.52786912566516
85	64	63	-0.060418115928769
85	65	64	0.75777158003766
85	66	65	-0.30672175173717
85	67	66	-0.9544425000731
85	68	67	1.2004432520385
84	46	45	2.1882217634469
84	47	46	3.9469700344373
84	48	47	5.7174998471746
84	49	48	7.7172928880667
84	50	49	9.7928507549688
84	51	50	11.517022139346
84	52	51	13.805531524704
84	53	52	15.173565213389
84	54	53	15.293841851067
84	55	54	14.755105087285
84	56	55	14.924432725047
84	57	56	14.371978439328
84	58	57	15.292367470947
84	59	58	15.360580664461
84	60	59	14.473439522514
84	61	60	14.172177060677
84	62	61	14.918983770635
84	63	62	14.39111464497
84	64	63	14.330696529041
84	65	64	15.088468109078
84	66	65	14.781746357341
84	67	66	13.827303857268
84	68	67	15.027747109307
81	45	44	1013.4
81	46	45	1013.4
81	47	46	1013.4
81	48	47	1013.4
81	49	48	1013.4
81	50	49	1013.4
81	51	50	1013.4
81	52	51	1013.4
81	53	52	1013.4
81	54	53	1013.4
81	55	54	1013.4
81	56	55	1013.4
81	57	56	1013.4
81	58	57	1013.4
81	59	58	1013.4
81	60	59	1013.4
81	61	60	1013.4
81	62	61	1013.4
81	63	62	1013.4
81	64	63	1013.4
81	65	64	1013.4
81	66	65	1013.4
81	67	66	1013.4
81	68	67	1013.4
80	45	44	2774.4273071429
80	46	45	2752.7284312319
80	47	46	2713.5894305911
80	48	47	2656.893476928
80	49	48	2580.3671469443
80	50	49	2483.25914039
80	51	50	2369.0538809229
80	52	51	2232.1552719958
80	53	52	2081.6909478615
80	54	53	1930.0339348145
80	55	54	1783.7191509608
80	56	55	1635.7252779665
80	57	56	1493.2096600524
80	58	57	1427.1276917096
80	59	58	1340.898436663
80	60	59	1196.7150659568
80	61	60	1055.5328503767
80	62	61	906.91099969531
80	63	62	763.54774353888
80	64	63	620.78636833776
80	65	64	470.47612678284
80	66	65	323.22142541004
80	67	66	185.47481204849
80	68	67	35.769468756085
vector 140 Scenario.node[27].veinsmobility acceleration ETV
vector 141 Scenario.node[27].veinsmobility co2emission ETV
vector 142 Scenario.node[28].veinsmobility speed ETV
96	50	49	4.2922177577126
96	51	50	5.5991672246264
96	52	51	4.8909415681979
96	53	52	8.3248713436046
96	54	53	8.8365884856837
96	55	54	7.351440069212
96	56	55	4.4717786704002
96	57	56	1.6558043238173
96	58	57	4.9231594106644
96	59	58	0.973
96	60	59	5.2460831958149
96	61	60	2.762110377843
96	62	61	1.0233030304477
96	63	62	3.9315095812311
96	64	63	1.2545682571854
96	65	64	0.973
96	66	65	8.4849871732665
96	67	66	0.973
96	68	67	1.6910671190212
96	69	68	2.818107927071
95	50	49	2.5498578036902
95	51	50	2.3796091584023
95	52	51	1.5670877428958
95	53	52	2.4331368483603
95	54	53	2.1412079657428
95	55	54	1.4688452977687
95	56	55	0.61533062067171
95	57	56	-0.1408157032216
95	58	57	0.69465949006844
95	59	58	-0.55785506288521
95	60	59	0.76253378053661
95	61	60	0.11971995437052
95	62	61	-0.3202303275466
95	63	62	0.41273534046486
95	64	63	-0.26226482754056
95	65	64	-1.6800436543885
95	66	65	1.6103318058448
95	67	66	-1.4071139209902
95	68	67	-0.11466754302698
95	69	68	0.19883268407874
94	49	48	2.2363538199803
94	50	49	4.7862116236705
94	51	50	7.1658207820728
94	52	51	8.7329085249687
94	53	52	11.166045373329
94	54	53	13.307253339072
94	55	54	14.77609863684
94	56	55	15.391429257512
94	57	56	15.250613554291
94	58	57	15.945273044359
94	59	58	15.387417981474
94	60	59	16.14995176201
94	61	60	16.269671716381
94	62	61	15.949441388834
94	63	62	16.362176729299
94	64	63	16.099911901759
94	65	64	14.41986824737
94	66	65	16.030200053215
94	67	66	14.623086132225
94	68	67	14.508418589198
94	69	68	14.707251273276
89	48	47	1013.4
89	49	48	1013.4
89	50	49	1013.4
89	51	50	1013.4
89	52	51	1013.4
89	53	52	1013.4
89	54	53	1013.4
89	55	54	1013.4
89	56	55	1013.4
89	57	56	1013.4
89	58	57	1013.4
89	59	58	1013.4
89	60	59	1013.4
89	61	60	1013.4
89	62	61	1013.4
89	63	62	1013.4
89	64	63	1013.4
89	65	64	1013.4
89	66	65	1013.4
89	67	66	1013.4
89	68	67	1013.4
89	69	68	1013.4
88	48	47	2774.4273071429
88	49	48	2752.2511434453
88	50	49	2704.7900433682
88	51	50	2633.7322289601
88	52	51	2547.134836689
88	53	52	2436.409938043
88	54	53	2304.4523623785
88	55	54	2157.9294019888
88	56	55	2005.3046913078
88	57	56	1854.0763393149
88	58	57	1695.9595949628
88	59	58	1543.3746609546
88	60	59	1431.331457856
88	61	60	1373.6952073646
88	62	61	1214.8080114948
88	63	62	1051.8091756445
88	64	63	891.42300327285
88	65	64	747.77330578314
88	66	65	588.0815978673
88	67	66	442.40745832423
88	68	67	297.87562865426
88	69	68	151.36304198782
vector 143 Scenario.node[29].veinsmobility posx ETV
vector 144 Scenario.node[29].veinsmobility posy ETV
vector 145 Scenario.node[28].veinsmobility acceleration ETV
vector 146 Scenario.node[28].veinsmobility co2emission ETV
vector 147 Scenario.node[29].veinsmobility speed ETV
vector 148 Scenario.node[29].veinsmobility acceleration ETV
vector 149 Scenario.node[29].veinsmobility co2emission ETV
vector 150 Scenario.node[30].veinsmobility posx ETV
vector 151 Scenario.node[30].veinsmobility posy ETV
vector 152 Scenario.node[31].veinsmobility posx ETV
vector 153 Scenario.node[31].veinsmobility posy ETV
vector 154 Scenario.node[30].veinsmobility speed ETV
vector 155 Scenario.node[30].veinsmobility acceleration ETV
vector 156 Scenario.node[30].veinsmobility co2emission ETV
vector 157 Scenario.node[31].veinsmobility speed ETV
vector 158 Scenario.node[32].veinsmobility posx ETV
vector 159 Scenario.node[32].veinsmobility posy ETV
vector 160 Scenario.node[31].veinsmobility acceleration ETV
vector 161 Scenario.node[31].veinsmobility co2emission ETV
vector 162 Scenario.node[33].veinsmobility posx ETV
vector 163 Scenario.node[33].veinsmobility posy ETV
vector 164 Scenario.node[32].veinsmobility speed ETV
106	53	52	4.1437548983261
106	54	53	4.2580841695416
106	55	54	4.9285247950095
106	56	55	8.4042096215665
106	57	56	4.2602568198047
106	58	57	0.973
106	59	58	3.9165120506459
106	60	59	1.2510820838419
106	61	60	2.5021290045029
106	62	61	2.2380462655109
106	63	62	0.973
106	64	63	2.3333211891755
106	65	64	2.3914367408614
106	66	65	3.3640920233358
106	67	66	1.22311292991
106	68	67	2.287380345858
106	69	68	0.973
106	70	69	1.4707770031229
106	71	70	2.480307679535
106	72	71	2.6897505658808
106	73	72	1.726857782773
106	74	73	1.7485676129922
106	75	74	0.973
106	76	75	1.762541701324
106	77	76	2.0803633764388
105	53	52	2.4196396903601
105	54	53	1.773755320115
105	55	54	1.6929426985327
105	56	55	2.5547831946285
105	57	56	0.86695987327876
105	58	57	-0.55454291612841
105	59	58	0.72859950773418
105	60	59	-0.20193468853831
105	61	60	0.23189963097684
105	62	61	0.13405022954102
105	63	62	-0.66617967409547
105	64	63	0.18874367878307
105	65	64	0.20000677204225
105	66	65	0.50624089699704
105	67	66	-0.21659578338731
105	68	67	0.14440334674437
105	69	68	-0.35035882394295
105	70	69	-0.12463116445578
105	71	70	0.2224025168689
105	72	71	0.28009727490134
105	73	72	-0.04617793916259
105	74	73	-0.037735749338752
105	75	74	-0.61322491983883
105	76	75	-0.015043010818772
105	77	76	0.096003718511202
104	52	51	2.369301540032
104	53	52	4.7889412303921
104	54	53	6.5626965505071
104	55	54	8.2556392490398
104	56	55	10.810422443668
104	57	56	11.677382316947
104	58	57	11.122839400819
104	59	58	11.851438908553
104	60	59	11.649504220015
104	61	60	11.881403850991
104	62	61	12.015454080532
104	63	62	11.349274406437
104	64	63	11.53801808522
104	65	64	11.738024857262
104	66	65	12.244265754259
104	67	66	12.027669970872
104	68	67	12.172073317616
104	69	68	11.821714493673
104	70	69	11.697083329218
104	71	70	11.919485846087
104	72	71	12.199583120988
104	73	72	12.153405181825
104	74	73	12.115669432487
104	75	74	11.502444512648
104	76	75	11.487401501829
104	77	76	11.58340522034
99	51	50	1013.4
99	52	51	1013.4
99	53	52	1013.4
99	54	53	1013.4
99	55	54	1013.4
99	56	55	1013.4
99	57	56	1013.4
99	58	57	1013.4
99	59	58	1013.4
99	60	59	1013.4
99	61	60	1013.4
99	62	61	1013.4
99	63	62	1013.4
99	64	63	1013.4
99	65	64	1013.4
99	66	65	1013.4
99	67	66	1013.4
99	68	67	1013.4
99	69	68	1013.4
99	70	69	1013.4
99	71	70	1013.4
99	72	71	1013.4
99	73	72	1013.4
99	74	73	1013.4
99	75	74	1013.4
99	76	75	1013.4
99	77	76	1013.4
98	51	50	2774.4273071429
98	52	51	2750.9328053644
98	53	52	2703.4446379222
98	54	53	2638.3675326352
98	55	54	2556.5028447762
98	56	55	2449.3043793057
98	57	56	2333.5089539546
98	58	57	2223.2124949905
98	59	58	2105.6910871793
98	60	59	1990.1721070113
98	61	60	1872.3535604097
98	62	61	1753.205743007
98	63	62	1640.6639060054
98	64	63	1526.2504462399
98	65	64	1434.0180692167
98	66	65	1421.7666220749
98	67	66	1320.7253673138
98	68	67	1199.4680423575
98	69	68	1081.7009669797
98	70	69	965.17545835997
98	71	70	846.4343917531
98	72	71	724.90301610062
98	73	72	603.83166177964
98	74	73	483.13622829817
98	75	74	368.54969766635
98	76	75	254.11302443381
98	77	76	138.71996901487
vector 165 Scenario.node[32].veinsmobility acceleration ETV
vector 166 Scenario.node[32].veinsmobility co2emission ETV
vector 167 Scenario.node[33].veinsmobility speed ETV
vector 168 Scenario.node[34].veinsmobility posx ETV
vector 169 Scenario.node[34].veinsmobility posy ETV
vector 170 Scenario.node[33].veinsmobility acceleration ETV
vector 171 Scenario.node[33].veinsmobility co2emission ETV
vector 172 Scenario.node[34].veinsmobility speed ETV
vector 173 Scenario.node[34].veinsmobility acceleration ETV
vector 174 Scenario.node[34].veinsmobility co2emission ETV
vector 175 Scenario.node[35].veinsmobility posx ETV
vector 176 Scenario.node[35].veinsmobility posy ETV
vector 177 Scenario.node[35].veinsmobility speed ETV
vector 178 Scenario.node[36].veinsmobility posx ETV
vector 179 Scenario.node[36].veinsmobility posy ETV
vector 180 Scenario.node[35].veinsmobility acceleration ETV
vector 181 Scenario.node[35].veinsmobility co2emission ETV
vector 182 Scenario.node[37].veinsmobility posx ETV
vector 183 Scenario.node[37].veinsmobility posy ETV
vector 184 Scenario.node[36].veinsmobility speed ETV
vector 185 Scenario.node[36].veinsmobility acceleration ETV
vector 186 Scenario.node[36].veinsmobility co2emission ETV
vector 187 Scenario.node[37].veinsmobility speed ETV
117	57	56	4.3408785515997
117	58	57	5.5304103777194
117	59	58	7.7669763402574
117	60	59	0.973
117	61	60	3.3298123904124
117	62	61	2.2884678169689
117	63	62	0.973
117	64	63	0.973
117	65	64	3.241830464599
117	66	65	2.3504926383902
117	67	66	1.971549531609
117	68	67	0.973
117	69	68	4.1820327160506
117	70	69	2.1777901801527
117	71	70	0.973
117	72	71	2.4581169991331
117	73	72	2.457580863426
117	74	73	0.973
117	75	74	2.6151241504353
117	76	75	1.7488950981864
117	77	76	1.7042491258646
117	78	77	2.4958680831045
117	79	78	0.973
117	80	79	1.6623895720635
117	81	80	1.9104057980667
117	82	81	3.1446112799356
117	83	82	1.2419611008724
117	84	83	2.4351339807712
117	85	84	0.973
117	86	85	0.973
116	57	56	2.5702729575569
116	58	57	2.3404766769148
116	59	58	2.594067000295
116	60	59	-0.29933532196079
116	61	60	0.66990184397437
116	62	61	0.23072899340186
116	63	62	-0.62552739416715
116	64	63	-0.41392609050963
116	65	64	0.64907459544484
116	66	65	0.26277657954488
116	67	66	0.10473357373849
116	68	67	-1.1811385603622
116	69	68	1.0137125077657
116	70	69	0.18658041842282
116	71	70	-0.58626388348639
116	72	71	0.31552721923217
116	73	72	0.29710842019413
116	74	73	-0.96239793135319
116	75	74	0.39895738456398
116	76	75	0.031772365421057
116	77	76	0.012552091060206
116	78	77	0.32452501270454
116	79	78	-0.74280327332672
116	80	79	0.0080638318555444
116	81	80	0.11200351542793
116	82	81	0.59154986811336
116	83	82	-0.1833842549473
116	84	83	0.29493317946326
116	85	84	-0.60885152097326
116	86	85	-0.35019397723954
114	56	55	2.2531933091814
114	57	56	4.8234662667383
114	58	57	7.1639429436531
114	59	58	9.7580099439481
114	60	59	9.4586746219873
114	61	60	10.128576465962
114	62	61	10.359305459364
114	63	62	9.7337780651964
114	64	63	9.3198519746868
114	65	64	9.9689265701316
114	66	65	10.231703149677
114	67	66	10.336436723415
114	68	67	9.1552981630528
114	69	68	10.169010670819
114	70	69	10.355591089241
114	71	70	9.769327205755
114	72	71	10.084854424987
114	73	72	10.381962845181
114	74	73	9.4195649138281
114	75	74	9.8185222983921
114	76	75	9.8502946638131
114	77	76	9.8628467548734
114	78	77	10.187371767578
114	79	78	9.4445684942512
114	80	79	9.4526323261067
114	81	80	9.5646358415347
114	82	81	10.156185709648
114	83	82	9.9728014547007
114	84	83	10.267734634164
114	85	84	9.6588831131907
114	86	85	9.3086891359512
111	55	54	1013.4
111	56	55	1013.4
111	57	56	1013.4
111	58	57	1013.4
111	59	58	1013.4
111	60	59	1013.4
111	61	60	1013.4
111	62	61	1013.4
111	63	62	1013.4
111	64	63	1013.4
111	65	64	1013.4
111	66	65	1013.4
111	67	66	1013.4
111	68	67	1013.4
111	69	68	1013.4
111	70	69	1013.4
111	71	70	1013.4
111	72	71	1013.4
111	73	72	1013.4
111	74	73	1013.4
111	75	74	1013.4
111	76	75	1013.4
111	77	76	1013.4
111	78	77	1013.4
111	79	78	1013.4
111	80	79	1013.4
111	81	80	1013.4
111	82	81	1013.4
111	83	82	1013.4
111	84	83	1013.4
111	85	84	1013.4
111	86	85	1013.4
110	55	54	2774.4273071429
110	56	55	2752.0841594619
110	57	56	2704.253634361
110	58	57	2633.2144410011
110	59	58	2536.4519233948
110	60	59	2442.6576789843
110	61	60	2342.2205443386
110	62	61	2239.4954515524
110	63	62	2142.9732224483
110	64	63	2050.5555731562
110	65	64	1951.7015610882
110	66	65	1850.2418001482
110	67	66	1747.7434786481
110	68	67	1656.9575802136
110	69	68	1556.1194913281
110	70	69	1453.4312310319
110	71	70	1428.6401653874
110	72	71	1408.5131675061
110	73	72	1305.0887952112
110	74	73	1211.2517623657
110	75	74	1113.4403445521
110	76	75	1015.3124127037
110	77	76	917.05943782069
110	78	77	815.57356794149
110	79	78	721.4874512138
110	80	79	627.32100316914
110	81	80	532.03878410405
110	82	81	430.86358750637
110	83	82	331.51525175761
110	84	83	229.22881274168
110	85	84	133.0077090883
110	86	85	40.275212822319
vector 188 Scenario.node[37].veinsmobility acceleration ETV
vector 189 Scenario.node[37].veinsmobility co2emission ETV
124	60	59	3.3421779850923
124	61	60	4.1320897036084
124	62	61	6.1403246196969
124	63	62	6.8355782031126
124	64	63	7.6691191514082
124	65	64	1.3559953795928
124	66	65	3.6255457565833
124	67	66	1.4063808904545
124	68	67	0.973
124	69	68	0.973
124	70	69	5.8235220724343
124	71	70	1.9186388880239
124	72	71	0.973
124	73	72	2.088982877092
124	74	73	4.4844370279356
124	75	74	0.973
124	76	75	1.5076214353042
124	77	76	3.2038355956062
124	78	77	0.973
124	79	78	3.206098499617
124	80	79	2.7040207106785
124	81	80	0.973
124	82	81	1.9091762320284
124	83	82	3.5323822281641
124	84	83	0.973
124	85	84	2.2685720427354
124	86	85	0.973
124	87	86	3.6288371094253
123	60	59	2.0613497745013
123	61	60	1.8864707684843
123	62	61	2.2980007355334
123	63	62	2.0593057342805
123	64	63	1.9573624067474
123	65	64	-0.17214067581735
123	66	65	0.56177572263405
123	67	66	-0.16189995844187
123	68	67	-1.1627750347509
123	69	68	-1.7439169883511
123	70	69	1.5116290507207
123	71	70	0.052390220913221
123	72	71	-1.3139314322573
123	73	72	0.16661609085562
123	74	73	1.0209247609775
123	75	74	-1.6221904765
123	76	75	-0.057583718878858
123	77	76	0.63080181067084
123	78	77	-0.7224723985436
123	79	78	0.63964490357205
123	80	79	0.40044830936551
123	81	80	-0.58483678636244
123	82	81	0.10022776928196
123	83	82	0.71100463491819
123	84	83	-1.0017173325211
123	85	84	0.25407280106025
123	86	85	-0.71247242135665
123	87	86	0.81831892221565
122	59	58	2.0226540115895
122	60	59	4.0840037860908
122	61	60	5.970474554575
122	62	61	8.2684752901085
122	63	62	10.327781024389
122	64	63	12.285143431136
122	65	64	12.113002755319
122	66	65	12.674778477953
122	67	66	12.512878519511
122	68	67	11.35010348476
122	69	68	9.6061864964092
122	70	69	11.11781554713
122	71	70	11.170205768043
122	72	71	9.8562743357858
122	73	72	10.022890426641
122	74	73	11.043815187619
122	75	74	9.4216247111189
122	76	75	9.36404099224
122	77	76	9.9948428029109
122	78	77	9.2723704043673
122	79	78	9.9120153079393
122	80	79	10.312463617305
122	81	80	9.7276268309424
122	82	81	9.8278546002243
122	83	82	10.538859235143
122	84	83	9.5371419026214
122	85	84	9.7912147036816
122	86	85	9.078742282325
122	87	86	9.8970612045406
121	58	57	1013.4
121	59	58	1013.4
121	60	59	1013.4
121	61	60	1013.4
121	62	61	1013.4
121	63	62	1013.4
121	64	63	1013.4
121	65	64	1013.4
121	66	65	1013.4
121	67	66	1013.4
121	68	67	1013.4
121	69	68	1013.4
121	70	69	1013.4
121	71	70	1013.4
121	72	71	1013.4
121	73	72	1013.4
121	74	73	1013.4
121	75	74	1013.4
121	76	75	1013.4
121	77	76	1013.4
121	78	77	1013.4
121	79	78	1013.4
121	80	79	1013.4
121	81	80	1013.4
121	82	81	1013.4
121	83	82	1013.4
121	84	83	1013.4
121	85	84	1013.4
121	86	85	1013.4
121	87	86	1013.4
120	58	57	2774.4273071429
120	59	58	2754.3702365381
120	60	59	2713.8723798515
120	61	60	2654.667874781
120	62	61	2572.6759019881
120	63	62	2470.2634122543
120	64	63	2348.4412974605
120	65	64	2228.3261664953
120	66	65	2102.6403470839
120	67	66	1978.5599623533
120	68	67	1866.0099040334
120	69	68	1770.7529002665
120	70	69	1660.5062589121
120	71	70	1549.7401049007
120	72	71	1452.0031765282
120	73	72	1428.2423569188
120	74	73	1394.9994522787
120	75	74	1301.1418998798
120	76	75	1207.8579923751
120	77	76	1108.2900822899
120	78	77	1015.9193906337
120	79	78	917.17660213714
120	80	79	814.4445761861
120	81	80	717.53865252674
120	82	81	619.63426698892
120	83	82	514.64690406409
120	84	83	419.63857765459
120	85	84	322.099196149
120	86	85	231.65741401407
120	87	86	133.06359722738
vector 190 Scenario.node[38].veinsmobility posx ETV
vector 191 Scenario.node[38].veinsmobility posy ETV
vector 192 Scenario.node[38].veinsmobility speed ETV
129	63	62	2.8867598975736
129	64	63	5.1989205953389
129	65	64	5.0668111054909
129	66	65	7.6971716050425
129	67	66	7.3772132397736
129	68	67	7.5970375518449
129	69	68	6.0348636707135
129	70	69	0.973
129	71	70	0.973
129	72	71	0.973
129	73	72	0.973
129	74	73	3.6661383107972
129	75	74	0.973
129	76	75	0.973
129	77	76	0.973
129	78	77	1.5528878638464
129	79	78	1.6546122629318
129	80	79	0.973
129	81	80	3.637005660098
129	82	81	0.973
129	83	82	3.1047181698618
129	84	83	4.1566771320427
129	85	84	0.973
129	86	85	2.1750938288393
129	87	86	0.973
129	88	87	4.1183724470758
129	89	88	6.9965527759551
128	63	62	1.9246318465564
128	64	63	2.589411442983
128	65	64	1.8529441009974
128	66	65	2.4091753016924
128	67	66	1.8761923054466
128	68	67	1.668507113168
128	69	68	1.0820379353417
128	70	69	-1.2643362188923
128	71	70	-0.33962245027025
128	72	71	-0.78111620721141
128	73	72	-1.6260470250745
128	74	73	0.66324600427624
128	75	74	-0.64590919996935
128	76	75	-0.43673409697039
128	77	76	-0.77665455084231
128	78	77	-0.04642399939201
128	79	78	-0.0027633345279536
128	80	79	-0.22052130682479
128	81	80	0.78291162018297
128	82	81	-0.65589403754655
128	83	82	0.57446708839016
128	84	83	0.89585935230741
128	85	84	-1.3173174802018
128	86	85	0.20606848327971
128	87	86	-0.76376340206516
128	88	87	0.98720445137758
128	89	88	1.7872077099513
127	62	61	1.5375984618207
127	63	62	3.4622303083772
127	64	63	6.0516417513601
127	65	64	7.9045858523576
127	66	65	10.31376115405
127	67	66	12.189953459497
127	68	67	13.858460572665
127	69	68	14.940498508006
127	70	69	13.676162289114
127	71	70	13.336539838844
127	72	71	12.555423631632
127	73	72	10.929376606558
127	74	73	11.592622610834
127	75	74	10.946713410865
127	76	75	10.509979313894
127	77	76	9.733324763052
127	78	77	9.68690076366
127	79	78	9.6841374291321
127	80	79	9.4636161223073
127	81	80	10.24652774249
127	82	81	9.5906337049437
127	83	82	10.165100793334
127	84	83	11.060960145641
127	85	84	9.7436426654394
127	86	85	9.9497111487192
127	87	86	9.185947746654
127	88	87	10.173152198032
127	89	88	11.960359907983
126	61	60	1013.4
126	62	61	1013.4
126	63	62	1013.4
126	64	63	1013.4
126	65	64	1013.4
126	66	65	1013.4
126	67	66	1013.4
126	68	67	1013.4
126	69	68	1013.4
126	70	69	1013.4
126	71	70	1013.4
126	72	71	1013.4
126	73	72	1013.4
126	74	73	1013.4
126	75	74	1013.4
126	76	75	1013.4
126	77	76	1013.4
126	78	77	1013.4
126	79	78	1013.4
126	80	79	1013.4
126	81	80	1013.4
126	82	81	1013.4
126	83	82	1013.4
126	84	83	1013.4
126	85	84	1013.4
126	86	85	1013.4
126	87	86	1013.4
126	88	87	1013.4
126	89	88	1013.4
125	61	60	2774.4273071429
125	62	61	2759.1801513101
125	63	62	2724.8479336657
125	64	63	2664.8385572788
125	65	64	2586.454990127
125	66	65	2484.1815244318
125	67	66	2363.3033337945
125	68	67	2225.8798690859
125	69	68	2077.7266843451
125	70	69	1942.11092848
125	71	70	1809.8629416081
125	72	71	1685.3606704289
125	73	72	1576.982629989
125	74	73	1462.0277000466
125	75	74	1428.3295074569
125	76	75	1401.1851656556
125	77	76	1304.2224796036
125	78	77	1207.7222661175
125	79	78	1111.2495807726
125	80	79	1016.9737129347
125	81	80	914.89853545889
125	82	81	819.35732753551
125	83	82	718.09331951095
125	84	83	607.90482460865
125	85	84	510.83935235002
125	86	85	411.72104058013
125	87	86	320.21128526709
125	88	87	218.86706972403
125	89	88	99.718818632123
vector 193 Scenario.node[39].veinsmobility posx ETV
vector 194 Scenario.node[39].veinsmobility posy ETV
vector 195 Scenario.node[38].veinsmobility acceleration ETV
vector 196 Scenario.node[38].veinsmobility co2emission ETV
vector 197 Scenario.node[40].veinsmobility posx ETV
vector 198 Scenario.node[40].veinsmobility posy ETV
vector 199 Scenario.node[39].veinsmobility speed ETV
134	66	65	2.3047902428822
134	67	66	4.6839310777353
134	68	67	5.1053161015749
134	69	68	4.4174894071835
134	70	69	8.5526415665766
134	71	70	5.351004951881
134	72	71	5.0600946863131
134	73	72	2.3189164623663
134	74	73	0.973
134	75	74	5.3616710081435
134	76	75	0.973
134	77	76	4.3699340994217
134	78	77	0.973
134	79	78	3.4381609891075
134	80	79	0.973
134	81	80	0.973
134	82	81	2.0958509354361
134	83	82	0.973
134	84	83	2.2981505087778
134	85	84	5.4707999322463
134	86	85	0.973
134	87	86	4.1763619189358
134	88	87	0.973
134	89	88	4.8723301558319
134	90	89	6.442443206449
134	91	90	4.8698921462965
133	66	65	1.3379623418208
133	67	66	2.4196000986267
133	68	67	1.9604923841311
133	69	68	1.310509787919
133	70	69	2.4660297393799
133	71	70	1.1456488059274
133	72	71	0.94762068795972
133	73	72	0.099134980165399
133	74	73	-1.2117105538491
133	75	74	1.0475804667454
133	76	75	-0.92053192101885
133	77	76	0.7548119408777
133	78	77	-0.71187164988369
133	79	78	0.4781404112
133	80	79	-0.90520168656075
133	81	80	-0.57422529284814
133	82	81	0.10007538705152
133	83	82	-1.2197541842438
133	84	83	0.22072707390007
133	85	84	1.2675460266947
133	86	85	-2.4008579212818
133	87	86	0.97396559196869
133	88	87	-1.4000322179349
133	89	88	1.2698219716663
133	90	89	1.5996244403094
133	91	90	0.94756142825481
132	65	64	1.8769185636193
132	66	65	3.2148809054401
132	67	66	5.6344810040668
132	68	67	7.5949733881978
132	69	68	8.9054831761168
132	70	69	11.371512915497
132	71	70	12.517161721424
132	72	71	13.464782409384
132	73	72	13.563917389549
132	74	73	12.3522068357
132	75	74	13.399787302446
132	76	75	12.479255381427
132	77	76	13.234067322304
132	78	77	12.522195672421
132	79	78	13.000336083621
132	80	79	12.09513439706
132	81	80	11.520909104212
132	82	81	11.620984491263
132	83	82	10.40123030702
132	84	83	10.62195738092
132	85	84	11.889503407614
132	86	85	9.4886454863325
132	87	86	10.462611078301
132	88	87	9.0625788603663
132	89	88	10.332400832033
132	90	89	11.932025272342
132	91	90	12.879586700597
131	64	63	1013.4
131	65	64	1013.4
131	66	65	1013.4
131	67	66	1013.4
131	68	67	1013.4
131	69	68	1013.4
131	70	69	1013.4
131	71	70	1013.4
131	72	71	1013.4
131	73	72	1013.4
131	74	73	1013.4
131	75	74	1013.4
131	76	75	1013.4
131	77	76	1013.4
131	78	77	1013.4
131	79	78	1013.4
131	80	79	1013.4
131	81	80	1013.4
131	82	81	1013.4
131	83	82	1013.4
131	84	83	1013.4
131	85	84	1013.4
131	86	85	1013.4
131	87	86	1013.4
131	88	87	1013.4
131	89	88	1013.4
131	90	89	1013.4
131	91	90	1013.4
130	64	63	2774.4273071429
130	65	64	2755.8153804692
130	66	65	2723.9359325078
130	67	66	2668.0632114827
130	68	67	2592.749827871
130	69	68	2504.4411483788
130	70	69	2391.678789556
130	71	70	2267.5559316774
130	72	71	2134.0362639954
130	73	72	1999.5335526069
130	74	73	1877.0464227227
130	75	74	1744.1712604486
130	76	75	1620.4242899602
130	77	76	1489.1924425207
130	78	77	1429.4941345907
130	79	78	1387.9715410534
130	80	79	1267.4806761281
130	81	80	1152.710202554
130	82	81	1036.9427851224
130	83	82	933.32647174887
130	84	83	827.51129103139
130	85	84	709.06890733498
130	86	85	614.54369876053
130	87	86	510.31591452785
130	88	87	420.03515124795
130	89	88	317.10451218787
130	90	89	198.23852871232
130	91	90	69.933005971452
vector 200 Scenario.node[39].veinsmobility acceleration ETV
vector 201 Scenario.node[39].veinsmobility co2emission ETV
vector 202 Scenario.node[40].veinsmobility speed ETV
vector 203 Scenario.node[41].veinsmobility posx ETV
vector 204 Scenario.node[41].veinsmobility posy ETV
vector 205 Scenario.node[40].veinsmobility acceleration ETV
vector 206 Scenario.node[40].veinsmobility co2emission ETV
141	69	68	3.0165973951787
141	70	69	3.6075573403542
141	71	70	6.4611878463956
141	72	71	6.9229505429234
141	73	72	8.634439250629
141	74	73	3.7472899750934
141	75	74	2.0088038280071
141	76	75	2.660333402913
141	77	76	1.8379202510645
141	78	77	1.8248994183241
141	79	78	1.2298483617789
141	80	79	2.1926598387182
141	81	80	5.995105666405
141	82	81	0.973
141	83	82	3.6341222445282
141	84	83	0.973
141	85	84	3.3266150274478
141	86	85	2.8900027836225
141	87	86	0.973
141	88	87	3.4177805690739
141	89	88	0.973
141	90	89	2.9870703168187
141	91	90	6.5375579021006
141	92	91	7.3425647153273
141	93	92	0.973
140	69	68	1.898551815562
140	70	69	1.6900248361519
140	71	70	2.5506400116254
140	72	71	2.1392054359429
140	73	72	2.2590448156698
140	74	73	0.57853195499553
140	75	74	0.021961069339886
140	76	75	0.2195067325607
140	77	76	-0.037616875767709
140	78	77	-0.040610546735115
140	79	78	-0.22559549403377
140	80	79	0.080777567927726
140	81	80	1.1554737174185
140	82	81	-0.88481640522368
140	83	82	0.48873943458311
140	84	83	-1.5863049088747
140	85	84	0.46656081868532
140	86	85	0.30633987506461
140	87	86	-2.2895108735623
140	88	87	0.60214340336155
140	89	88	-1.9186502126216
140	90	89	0.55022890401332
140	91	90	1.6933777971659
140	92	91	1.6824813931907
140	93	92	-0.2913201914226
139	68	67	1.8612768378574
139	69	68	3.7598286534194
139	70	69	5.4498534895713
139	71	70	8.0004935011966
139	72	71	10.139698937139
139	73	72	12.398743752809
139	74	73	12.977275707805
139	75	74	12.999236777145
139	76	75	13.218743509705
139	77	76	13.181126633938
139	78	77	13.140516087203
139	79	78	12.914920593169
139	80	79	12.995698161096
139	81	80	14.151171878515
139	82	81	13.266355473291
139	83	82	13.755094907874
139	84	83	12.168789999
139	85	84	12.635350817685
139	86	85	12.94169069275
139	87	86	10.652179819187
139	88	87	11.254323222549
139	89	88	9.3356730099272
139	90	89	9.8859019139406
139	91	90	11.579279711106
139	92	91	13.261761104297
139	93	92	12.970440912875
136	67	66	1013.4
136	68	67	1013.4
136	69	68	1013.4
136	70	69	1013.4
136	71	70	1013.4
136	72	71	1013.4
136	73	72	1013.4
136	74	73	1013.4
136	75	74	1013.4
136	76	75	1013.4
136	77	76	1013.4
136	78	77	1013.4
136	79	78	1013.4
136	80	79	1013.4
136	81	80	1013.4
136	82	81	1013.4
136	83	82	1013.4
136	84	83	1013.4
136	85	84	1013.4
136	86	85	1013.4
136	87	86	1013.4
136	88	87	1013.4
136	89	88	1013.4
136	90	89	1013.4
136	91	90	1013.4
136	92	91	1013.4
136	93	92	1013.4
135	67	66	2774.4273071429
135	68	67	2755.9704871736
135	69	68	2718.6872205688
135	70	69	2664.6453055404
135	71	70	2585.3106975911
135	72	71	2484.7632701378
135	73	72	2361.8146702113
135	74	73	2233.1292234479
135	75	74	2104.226006015
135	76	75	1973.1461127848
135	77	76	1842.4392365556
135	78	77	1712.13506321
135	79	78	1584.0679431252
135	80	79	1455.1998153673
135	81	80	1424.4342080985
135	82	81	1334.9443952769
135	83	82	1197.9171223114
135	84	83	1076.6925055407
135	85	84	950.82004321995
135	86	85	821.89584494525
135	87	86	715.7795904565
135	88	87	603.6648263937
135	89	88	510.66351870259
135	90	89	412.18086997176
135	91	90	296.82891258113
135	92	91	164.71619572877
135	93	92	35.505589814778
vector 207 Scenario.node[42].veinsmobility posx ETV
vector 208 Scenario.node[42].veinsmobility posy ETV
vector 209 Scenario.node[41].veinsmobility speed ETV
149	72	71	2.8807447302612
149	73	72	3.515045569948
149	74	73	6.2030064085665
149	75	74	7.9490012654897
149	76	75	7.5407099700253
149	77	76	5.9849322747422
149	78	77	2.9516400942327
149	79	78	1.2317807326693
149	80	79	0.973
149	81	80	3.6299687328798
149	82	81	4.0033306180937
149	83	82	0.973
149	84	83	5.552242493733
149	85	84	0.973
149	86	85	1.6263878932821
149	87	86	4.9098557064339
149	88	87	0.973
149	89	88	4.6757416411689
149	90	89	0.973
149	91	90	2.064710664879
149	92	91	7.0060838627798
149	93	92	8.6915325530881
149	94	93	0.973
148	72	71	1.5712862999644
148	73	72	1.5451610927936
148	74	73	2.3932675188407
148	75	74	2.4536939490819
148	76	75	1.8901028393535
148	77	76	1.2129775581587
148	78	77	0.27538117556833
148	79	78	-0.23480702911038
148	80	79	-0.43935308612418
148	81	80	0.48988272079732
148	82	81	0.56231689571869
148	83	82	-0.950353827863
148	84	83	1.0066672428977
148	85	84	-0.90384367124643
148	86	85	-0.10744796262588
148	87	86	0.83625793212559
148	88	87	-1.5504274327379
148	89	88	0.83117255145321
148	90	89	-3.2116807251283
148	91	90	0.14053708993931
148	92	91	1.7599981401581
148	93	92	1.9566624302876
148	94	93	-1.2936372243078
147	71	70	2.5611636193004
147	72	71	4.1324499192648
147	73	72	5.6776110120583
147	74	73	8.0708785308991
147	75	74	10.524572479981
147	76	75	12.414675319334
147	77	76	13.627652877493
147	78	77	13.903034053061
147	79	78	13.668227023951
147	80	79	13.228873937827
147	81	80	13.718756658624
147	82	81	14.281073554343
147	83	82	13.33071972648
147	84	83	14.337386969378
147	85	84	13.433543298131
147	86	85	13.326095335505
147	87	86	14.162353267631
147	88	87	12.611925834893
147	89	88	13.443098386346
147	90	89	10.231417661218
147	91	90	10.371954751157
147	92	91	12.131952891315
147	93	92	14.088615321603
147	94	93	12.794978097295
144	70	69	1013.4
144	71	70	1013.4
144	72	71	1013.4
144	73	72	1013.4
144	74	73	1013.4
144	75	74	1013.4
144	76	75	1013.4
144	77	76	1013.4
144	78	77	1013.4
144	79	78	1013.4
144	80	79	1013.4
144	81	80	1013.4
144	82	81	1013.4
144	83	82	1013.4
144	84	83	1013.4
144	85	84	1013.4
144	86	85	1013.4
144	87	86	1013.4
144	88	87	1013.4
144	89	88	1013.4
144	90	89	1013.4
144	91	90	1013.4
144	92	91	1013.4
144	93	92	1013.4
144	94	93	1013.4
143	70	69	2774.4273071429
143	71	70	2749.0302598731
143	72	71	2708.0520009487
143	73	72	2651.7515935222
143	74	73	2571.7190325358
143	75	74	2467.3551165588
143	76	75	2344.2485358047
143	77	76	2209.1138096602
143	78	77	2071.2483447684
143	79	78	1935.7112766931
143	80	79	1804.5309279669
143	81	80	1668.4927972064
143	82	81	1526.8786116115
143	83	82	1432.4878246664
143	84	83	1404.4573811328
143	85	84	1270.6333823356
143	86	85	1137.8797724673
143	87	86	996.79542081179
143	88	87	871.15631649643
143	89	88	737.23713059296
143	90	89	635.31247866746
143	91	90	531.98780629034
143	92	91	411.13015815512
143	93	92	270.78037865098
143	94	93	143.31772077273
vector 210 Scenario.node[41].veinsmobility acceleration ETV
vector 211 Scenario.node[41].veinsmobility co2emission ETV
vector 212 Scenario.node[42].veinsmobility speed ETV
vector 213 Scenario.node[43].veinsmobility posx ETV
vector 214 Scenario.node[43].veinsmobility posy ETV
vector 215 Scenario.node[42].veinsmobility acceleration ETV
vector 216 Scenario.node[42].veinsmobility co2emission ETV
156	75	74	4.0169383792759
156	76	75	4.5651188846573
156	77	76	4.7831761197076
156	78	77	6.439194658036
156	79	78	7.4028724246197
156	80	79	9.884746010226
156	81	80	0.973
156	82	81	4.344891434539
156	83	82	0.973
156	84	83	2.11217561703
156	85	84	1.7462492535103
156	86	85	3.3918464364011
156	87	86	3.6163065528247
156	88	87	0.973
156	89	88	0.973
156	90	89	3.6361151015909
156	91	90	0.973
156	92	91	1.8990099252357
156	93	92	2.3523558354907
156	94	93	3.0298380632028
156	95	94	2.2631621419047
156	96	95	0.973
155	75	74	2.5103725137422
155	76	75	2.0080946934409
155	77	76	1.6559326440794
155	78	77	1.9589820680441
155	79	78	1.9235944716493
155	80	79	2.2752540679416
155	81	80	-0.36649357915466
155	82	81	0.6423070257064
155	83	82	-0.88510704233777
155	84	83	0.032003222359345
155	85	84	-0.077071116515436
155	86	85	0.40066302933265
155	87	86	0.43976151442621
155	88	87	-0.37383560342714
155	89	88	-0.29090465339832
155	90	89	0.45824457784183
155	91	90	-0.61999361978378
155	92	91	-0.030028611971357
155	93	92	0.10441446103185
155	94	93	0.29433938155417
155	95	94	0.064642754616216
155	96	95	-0.37775113335811
154	74	73	1.9273016948951
154	75	74	4.4376742086373
[...]
685	358	357	0.36675278787086
685	359	358	-0.87737377983705
685	360	359	0.21028917796654
685	361	360	-0.15670141523426
685	362	361	-0.10418982871333
685	363	362	-0.042601402626026
685	364	363	-0.0072122757858487
685	365	364	-0.0070644537309178
685	366	365	0.0022929758320005
685	367	366	-0.0074079126015015
685	368	367	-0.0045491742786186
685	369	368	-0.00087069320330476
685	370	369	-0.00011240753631779
685	371	370	-0.00024486836385344
685	372	371	-0.00021235983430771
685	373	372	0
685	374	373	0
685	375	374	0
685	376	375	0
685	377	376	0
685	378	377	0
685	379	378	0
685	380	379	0
685	381	380	0
685	382	381	0
685	383	382	0
685	384	383	0
685	385	384	0
685	386	385	0
685	387	386	0
685	388	387	0
685	389	388	0.020418602061926
685	390	389	0.14997952162683
685	391	390	0.053256621331675
685	392	391	0.35905747831484
685	393	392	0.50615094570985
685	394	393	0.41212130076377
685	395	394	-0.64237403619426
685	396	395	0.048997226016413
685	397	396	-0.42216964569037
685	398	397	0.092452289660597
685	399	398	-0.14580705849276
685	400	399	-0.14159594615237
685	401	400	-0.16336203161692
685	402	401	0.049449457600221
685	403	402	-0.15327453311387
685	404	403	-0.0087200937269965
685	405	404	-0.0053103331586343
685	406	405	-0.0049478695896619
685	407	406	-0.0013276593890085
685	408	407	-0.00077168205750918
685	409	408	-0.0010891164348036
685	410	409	-0.00089813877351438
685	411	410	-0.000235298695447
685	412	411	0
685	413	412	0
685	414	413	0
686	352	351	0.973
686	353	352	1.2437305183254
686	354	353	0.973
686	355	354	1.5923787632919
686	356	355	0.973
686	357	356	0.973
686	358	357	1.2461664942709
686	359	358	0.973
686	360	359	1.1425353825042
686	361	360	0.973
686	362	361	0.973
686	363	362	1.1109638022328
686	364	363	1.1108448875706
686	365	364	1.110516772632
686	366	365	1.1106536950693
686	367	366	1.1102782405534
686	368	367	1.1100679023622
686	369	368	1.1100273596972
686	370	369	1.1100220443019
686	371	370	1.1100102317064
686	372	371	0.973
686	373	372	0.973
686	374	373	0.973
686	375	374	0.973
686	376	375	0.973
686	377	376	0.973
686	378	377	0.973
686	379	378	0.973
686	380	379	0.973
686	381	380	0.973
686	382	381	0.973
686	383	382	0.973
686	384	383	0.973
686	385	384	0.973
686	386	385	0.973
686	387	386	0.973
686	388	387	0.973
686	389	388	1.1110854717036
686	390	389	1.1243795137479
686	391	390	1.1236607125432
686	392	391	1.1885520666633
686	393	392	1.2954681372591
686	394	393	1.3317995128019
686	395	394	0.973
686	396	395	1.1645693920427
686	397	396	0.973
686	398	397	1.1507712314034
686	399	398	0.973
686	400	399	0.973
686	401	400	0.973
686	402	401	1.1206227706841
686	403	402	0.973
686	404	403	1.1106727035215
686	405	404	1.1104353101791
686	406	405	1.1102033346531
686	407	406	1.1101434838918
686	408	407	1.110106802661
686	409	408	1.1100543795223
686	410	409	1.1100112998783
686	411	410	0.973
686	412	411	0.973
686	413	412	0.973
686	414	413	0.973
750	390	389	2774.4273071429
750	391	390	2753.3244827074
750	392	391	2710.4283573037
750	393	392	2643.6780908905
750	394	393	2552.2933476988
750	395	394	2439.6174460574
750	396	395	2310.3454382829
750	397	396	2180.3962276347
750	398	397	2060.7742378478
750	399	398	1934.7394529164
750	400	399	1815.218863775
750	401	400	1686.3677627775
750	402	401	1563.4346986791
750	403	402	1437.5859365674
750	404	403	1424.579754296
750	405	404	1345.9976071836
750	406	405	1215.4885100813
750	407	406	1091.8866150243
750	408	407	961.11077767541
750	409	408	829.59641451768
750	410	409	703.68939469813
750	411	410	575.90359429738
750	412	411	455.65130749576
750	413	412	332.26478980495
750	414	413	213.17303443807
751	390	389	1013.4
751	391	390	1013.4
751	392	391	1013.4
751	393	392	1013.4
751	394	393	1013.4
751	395	394	1013.4
751	396	395	1013.4
751	397	396	1013.4
751	398	397	1013.4
751	399	398	1013.4
751	400	399	1013.4
751	401	400	1013.4
751	402	401	1013.4
751	403	402	1013.4
751	404	403	1013.4
751	405	404	1013.4
751	406	405	1013.4
751	407	406	1013.4
751	408	407	1013.4
751	409	408	1013.4
751	410	409	1013.4
751	411	410	1013.4
751	412	411	1013.4
751	413	412	1013.4
751	414	413	1013.4
752	391	390	2378.1077071429
752	392	391	2377.0824386123
752	393	392	2373.9000469209
752	394	393	2368.4632632211
752	395	394	2359.5591200141
752	396	395	2349.2378600072
752	397	396	2343.6112293729
752	398	397	2340.7977526499
752	399	398	2337.6755102619
752	400	399	2332.4887454317
752	401	400	2330.171309371
752	402	401	2328.8981018336
752	403	402	2327.5401355036
752	404	403	2327.4106859862
752	405	404	2327.2422907226
752	406	405	2327.1511198808
752	407	406	2327.1047750423
752	408	407	2327.0871834957
752	409	408	2327.0613697567
752	410	409	2327.0529187894
752	411	410	2327.0501084348
752	412	411	2327.0501084348
752	413	412	2327.0501084348
752	414	413	2327.0501084348
753	391	390	59.632292857143
753	392	391	60.657561387736
753	393	392	63.839953079104
753	394	393	69.276736778931
753	395	394	78.180879985886
753	396	395	88.502139992761
753	397	396	94.12877062715
753	398	397	96.94224735012
753	399	398	100.06448973809
753	400	399	105.25125456831
753	401	400	107.56869062898
753	402	401	108.84189816635
753	403	402	110.19986449636
753	404	403	110.32931401377
753	405	404	110.49770927745
753	406	405	110.58888011918
753	407	406	110.6352249577
753	408	407	110.65281650431
753	409	408	110.67863024329
753	410	409	110.68708121056
753	411	410	110.68989156523
753	412	411	110.68989156523
753	413	412	110.68989156523
753	414	413	110.68989156523
754	391	390	2.1281129902462
754	392	391	4.3258570425911
754	393	392	6.7314263780369
754	394	393	9.2156886245823
754	395	394	11.362794146524
754	396	395	13.036427415723
754	397	396	13.104719896523
754	398	397	12.063271964506
754	399	398	12.70996988367
754	400	399	12.053046222848
754	401	400	12.993981098525
754	402	401	12.39717704321
754	403	402	12.691210424227
754	404	403	12.229440506177
754	405	404	12.302270968004
754	406	405	13.100786275116
754	407	406	12.407426350309
754	408	407	13.127562239698
754	409	408	13.201697062447
754	410	409	12.638819774382
754	411	410	12.827415844683
754	412	411	12.071185407463
754	413	412	12.385806303077
754	414	413	11.954688744551
755	392	391	2.1977440523449
755	393	392	2.4055693354458
755	394	393	2.4842622465454
755	395	394	2.1471055219416
755	396	395	1.673633269199
755	397	396	0.0682924808003
755	398	397	-1.041447932017
755	399	398	0.64669791916385
755	400	399	-0.65692366082221
755	401	400	0.94093487567734
755	402	401	-0.59680405531544
755	403	402	0.29403338101693
755	404	403	-0.46176991804969
755	405	404	0.072830461827106
755	406	405	0.79851530711167
755	407	406	-0.69335992480628
755	408	407	0.72013588938862
755	409	408	0.074134822748601
755	410	409	-0.56287728806492
755	411	410	0.18859607030172
755	412	411	-0.75623043722007
755	413	412	0.31462089561392
755	414	413	-0.43111755852587
756	392	391	3.6173749151905
756	393	392	5.3653929630495
756	394	393	7.1443669236672
756	395	394	7.6733743541097
756	396	395	7.2017304317906
756	397	396	2.1657562464437
756	398	397	0.973
756	399	398	3.8937044413968
756	400	399	0.973
756	401	400	4.8860883636951
756	402	401	0.973
756	403	402	2.8103838235463
756	404	403	0.973
756	405	404	2.0913927938636
756	406	405	4.4708394442483
756	407	406	0.973
756	408	407	4.2305878540624
756	409	408	2.1952683116258
756	410	409	0.973
756	411	410	2.5068018602973
756	412	411	0.973
756	413	412	2.8221558152304
756	414	413	0.973
757	392	391	0.14621180825601
757	393	392	0.45383548786464
757	394	393	0.77533051305956
757	395	394	1.2698047783702
757	396	395	1.4718974044906
757	397	396	0.80240426278069
757	398	397	0.40122514919467
757	399	398	0.44525769760479
757	400	399	0.73967574561818
757	401	400	0.33048563067947
757	402	401	0.18156996998307
757	403	402	0.19365727781231
757	404	403	0.018460576378484
757	405	404	0.024014563277719
757	406	405	0.013001719288276
757	407	406	0.0066091589089455
757	408	407	0.0025087006613611
757	409	408	0.0036812535853792
757	410	409	0.0012051781250782
757	411	410	0.00040077991776952
757	412	411	0
757	413	412	0
757	414	413	0
758	393	392	2774.4273071429
758	394	393	2753.0331888517
758	395	394	2707.7534217592
758	396	395	2642.9559284247
758	397	396	2561.4042443396
758	398	397	2459.0943468853
758	399	398	2340.7305749627
758	400	399	2204.9313903642
758	401	400	2060.0600032499
758	402	401	1919.3900663303
758	403	402	1779.8407371663
758	404	403	1636.4389531675
758	405	404	1492.1710415708
758	406	405	1428.3842532607
758	407	406	1366.9794961428
758	408	407	1225.3953999465
758	409	408	1086.2291212123
758	410	409	953.11686519858
758	411	410	816.67292120834
758	412	411	681.56972855251
758	413	412	556.3211289026
758	414	413	429.48603971664
759	393	392	1013.4
759	394	393	1013.4
759	395	394	1013.4
759	396	395	1013.4
759	397	396	1013.4
759	398	397	1013.4
759	399	398	1013.4
759	400	399	1013.4
759	401	400	1013.4
759	402	401	1013.4
759	403	402	1013.4
759	404	403	1013.4
759	405	404	1013.4
759	406	405	1013.4
759	407	406	1013.4
759	408	407	1013.4
759	409	408	1013.4
759	410	409	1013.4
759	411	410	1013.4
759	412	411	1013.4
759	413	412	1013.4
759	414	413	1013.4
760	393	392	0.30762367960863
760	394	393	0.32149502519492
760	395	394	0.49447426531059
760	396	395	0.20209262612043
760	397	396	-0.6694931417099
760	398	397	-0.40117911358601
760	399	398	0.044032548410114
760	400	399	0.29441804801339
760	401	400	-0.40919011493871
760	402	401	-0.1489156606964
760	403	402	0.01208730782925
760	404	403	-0.17519670143383
760	405	404	0.0055539868992346
760	406	405	-0.011012843989443
760	407	406	-0.0063925603793303
760	408	407	-0.0041004582475844
760	409	408	0.0011725529240181
760	410	409	-0.002476075460301
760	411	410	-0.00080439820730868
760	412	411	-0.00040077991776952
760	413	412	0
760	414	413	0
761	393	392	1.1655477998421
761	394	393	1.2075178414964
761	395	394	1.3227649967408
761	396	395	1.2529866786419
761	397	396	0.973
761	398	397	0.973
761	399	398	1.136212391315
761	400	399	1.1982028502148
761	401	400	0.973
761	402	401	0.973
761	403	402	1.1199068296334
761	404	403	0.973
761	405	404	1.1111906075652
761	406	405	1.1105926953381
761	407	406	1.1103086437356
761	408	407	1.1101185405972
761	409	408	1.1101786239455
761	410	409	1.1100574186219
761	411	410	1.1100192559281
761	412	411	0.973
761	413	412	0.973
761	414	413	0.973
762	394	393	2.1574885006296
762	395	394	4.5662352373358
762	396	395	6.5344991009217
762	397	396	8.2240744033363
762	398	397	10.317435112479
762	399	398	11.936387063866
762	400	399	13.694660148094
762	401	400	14.609545834751
762	402	401	14.185850856633
762	403	402	14.072843238681
762	404	403	14.461343801876
762	405	404	14.548688384488
762	406	405	13.931803059315
762	407	406	13.998332334117
762	408	407	14.212518708711
762	409	408	13.969812946993
762	410	409	13.362097013576
762	411	410	13.696539079949
762	412	411	13.561951552565
762	413	412	12.57272612947
762	414	413	12.731981390605
763	395	394	2.4087467367062
763	396	395	1.9682638635859
763	397	396	1.6895753024146
763	398	397	2.0933607091429
763	399	398	1.6189519513864
763	400	399	1.7582730842289
763	401	400	0.91488568665704
763	402	401	-0.42369497811887
763	403	402	-0.11300761795137
763	404	403	0.38850056319498
763	405	404	0.087344582611696
763	406	405	-0.61688532517292
763	407	406	0.066529274801724
763	408	407	0.21418637459463
763	409	408	-0.24270576171874
763	410	409	-0.60771593341651
763	411	410	0.33444206637324
763	412	411	-0.13458752738434
763	413	412	-0.98922542309487
763	414	413	0.15925526113471
764	395	394	3.9898063433326
764	396	395	4.5506499308215
764	397	396	4.9068555567201
764	398	397	6.9143167529616
764	399	398	6.5001061541397
764	400	399	7.810918980465
764	401	400	5.3240459266776
764	402	401	0.973
764	403	402	1.6630674069508
764	404	403	3.4409932599981
764	405	404	2.4025543377518
764	406	405	0.973
764	407	406	2.2631196582972
764	408	407	2.7944542396786
764	409	408	1.2186316961488
764	410	409	0.973
764	411	410	3.1120281969997
764	412	411	1.5547687137176
764	413	412	0.973
764	414	413	2.4035113006313
765	396	395	2774.4273071429
765	397	396	2754.0677120663
765	398	397	2710.8623546699
765	399	398	2642.9981054015
765	400	399	2550.6399160338
765	401	400	2434.1944573697
765	402	401	2307.9097478
765	403	402	2181.0945521231
765	404	403	2057.5132386826
765	405	404	1925.5400067904
765	406	405	1798.8365648056
765	407	406	1667.9402942059
765	408	407	1541.5678077435
765	409	408	1434.3958781597
765	410	409	1421.370368657
765	411	410	1308.9988893295
765	412	411	1182.6758417538
765	413	412	1050.8842367798
765	414	413	930.32372271147
766	396	395	1013.4
766	397	396	1013.4
766	398	397	1013.4
766	399	398	1013.4
766	400	399	1013.4
766	401	400	1013.4
766	402	401	1013.4
766	403	402	1013.4
766	404	403	1013.4
766	405	404	1013.4
766	406	405	1013.4
766	407	406	1013.4
766	408	407	1013.4
766	409	408	1013.4
766	410	409	1013.4
766	411	410	1013.4
766	412	411	1013.4
766	413	412	1013.4
766	414	413	1013.4
767	397	396	2.0531620727386
767	398	397	4.3570415232563
767	399	398	6.84376590834
767	400	399	9.3138557423837
767	401	400	11.742934885132
767	402	401	12.735173517942
767	403	402	12.788670355744
767	404	403	12.462549706955
767	405	404	13.308832190359
767	406	405	12.777400561759
767	407	406	13.200226097192
767	408	407	12.74402537312
767	409	408	12.905115721385
767	410	409	13.017874385776
767	411	410	12.808778121286
767	412	411	12.680581543023
767	413	412	13.22952719737
767	414	413	12.10212592912
768	398	397	2.3038794505177
768	399	398	2.4867243850837
768	400	399	2.4700898340438
768	401	400	2.4290791427484
768	402	401	0.99223863280956
768	403	402	0.05349683780223
768	404	403	-0.32612064878922
768	405	404	0.8462824834045
768	406	405	-0.53143162860069
768	407	406	0.42282553543337
768	408	407	-0.45620072407182
768	409	408	0.16109034826513
768	410	409	0.112758664391
768	411	410	-0.20909626448993
768	412	411	-0.1281965782633
768	413	412	0.54894565434661
768	414	413	-1.1274012682494
769	398	397	3.7470063624165
769	399	398	5.5712274685616
769	400	399	7.1783991635162
769	401	400	8.7004780965464
769	402	401	4.9605044999003
769	403	402	2.0850250066482
769	404	403	0.973
769	405	404	4.6841759066855
769	406	405	0.973
769	407	406	3.3043739256779
769	408	407	0.973
769	409	408	2.432099920134
769	410	409	2.2955356067781
769	411	410	1.2765643573499
769	412	411	1.5183005881411
769	413	412	3.7123021123322
769	414	413	0.973
770	399	398	2774.4273071429
770	400	399	2758.6210169592
770	401	400	2722.0953919347
770	402	401	2666.4372434328
770	403	402	2595.4162605243
770	404	403	2510.7817446287
770	405	404	2410.1787118364
770	406	405	2292.7177309308
770	407	406	2172.3414532991
770	408	407	2043.3081291142
770	409	408	1921.2685528179
770	410	409	1800.3720206903
770	411	410	1680.9151804746
770	412	411	1553.3261758578
770	413	412	1436.1946994653
770	414	413	1424.2080395387
771	399	398	1013.4
771	400	399	1013.4
771	401	400	1013.4
771	402	401	1013.4
771	403	402	1013.4
771	404	403	1013.4
771	405	404	1013.4
771	406	405	1013.4
771	407	406	1013.4
771	408	407	1013.4
771	409	408	1013.4
771	410	409	1013.4
771	411	410	1013.4
771	412	411	1013.4
771	413	412	1013.4
771	414	413	1013.4
772	400	399	1.5939843299333
772	401	400	3.6834243363468
772	402	401	5.6128424515948
772	403	402	7.162106511835
772	404	403	8.5349623815157
772	405	404	10.145306454017
772	406	405	11.845345161087
772	407	406	12.139338074321
772	408	407	13.012357384291
772	409	408	12.307073322543
772	410	409	12.191803105919
772	411	410	12.046617466489
772	412	411	12.866705069154
772	413	412	12.293120710388
772	414	413	11.979633748484
773	401	400	2.0894400064135
773	402	401	1.929418115248
773	403	402	1.5492640602402
773	404	403	1.3728558696806
773	405	404	1.6103440725012
773	406	405	1.7000387070701
773	407	406	0.29399291323373
773	408	407	0.87301930997055
773	409	408	-0.70528406174853
773	410	409	-0.11527021662332
773	411	410	-0.14518563942984
773	412	411	0.82008760266472
773	413	412	-0.57358435876668
773	414	413	-0.31348696190398
774	401	400	3.1471119453477
774	402	401	4.0070128961232
774	403	402	4.1635733094016
774	404	403	4.4030245463517
774	405	404	5.6331958565143
774	406	405	6.6881058519759
774	407	406	2.7209577766374
774	408	407	4.6790213043023
774	409	408	0.973
774	410	409	1.5268509194157
774	411	410	1.431119160358
774	412	411	4.4704569326747
774	413	412	0.973
774	414	413	0.973
775	402	401	2774.4273071429
775	403	402	2749.8279622004
775	404	403	2711.1064811477
775	405	404	2654.1174549106
775	406	405	2583.8056256378
775	407	406	2490.5279641365
775	408	407	2372.5189348568
775	409	408	2238.7137282568
775	410	409	2107.9687556545
775	411	410	1978.7271811846
775	412	411	1853.1109324949
775	413	412	1726.6342732926
775	414	413	1598.5041410025
776	402	401	1013.4
776	403	402	1013.4
776	404	403	1013.4
776	405	404	1013.4
776	406	405	1013.4
776	407	406	1013.4
776	408	407	1013.4
776	409	408	1013.4
776	410	409	1013.4
776	411	410	1013.4
776	412	411	1013.4
776	413	412	1013.4
776	414	413	1013.4
777	403	402	2.4807193787536
777	404	403	3.9048652980942
777	405	404	5.7470547322882
777	406	405	7.0905919584678
777	407	406	9.4065798513126
777	408	407	11.900613064575
777	409	408	13.49357756345
777	410	409	13.184968460249
777	411	410	13.033358371062
777	412	411	12.667762622949
777	413	412	12.754530666456
777	414	413	12.921275055003
778	404	403	1.4241459193407
778	405	404	1.842189434194
778	406	405	1.3435372261796
778	407	406	2.3159878928447
778	408	407	2.4940332132624
778	409	408	1.5929644988754
778	410	409	-0.30860910320189
778	411	410	-0.15161008918658
778	412	411	-0.36559574811254
778	413	412	0.08676804350689
778	414	413	0.16674438854679
779	404	403	2.6440956719427
779	405	404	3.9562794430977
779	406	405	3.7808626075271
779	407	406	6.8909746072863
779	408	407	8.9927890785694
779	409	408	7.1681370325897
779	410	409	0.973
779	411	410	1.4670387368173
779	412	411	0.973
779	413	412	2.1836651009071
779	414	413	2.4518603988878
780	405	404	2774.4273071429
780	406	405	2751.5455624333
780	407	406	2713.5366201012
780	408	407	2657.0509120401
780	409	408	2583.7322015531
780	410	409	2490.0057326864
780	411	410	2381.8671905248
780	412	411	2260.760372272
780	413	412	2116.2740491098
780	414	413	1969.1655831071
781	405	404	1013.4
781	406	405	1013.4
781	407	406	1013.4
781	408	407	1013.4
781	409	408	1013.4
781	410	409	1013.4
781	411	410	1013.4
781	412	411	1013.4
781	413	412	1013.4
781	414	413	1013.4
782	406	405	2.307508092327
782	407	406	3.8330093760509
782	408	407	5.6962976427982
782	409	408	7.3938207035884
782	410	409	9.451839801576
782	411	410	10.905224417895
782	412	411	12.213009396871
782	413	412	14.570714084944
782	414	413	14.835143913197
783	407	406	1.5255012837239
783	408	407	1.8632882667473
783	409	408	1.6975230607903
783	410	409	2.0580190979876
783	411	410	1.4533846163191
783	412	411	1.3077849789755
783	413	412	2.3577046880731
783	414	413	0.26442982825351
784	407	406	2.7092964701082
784	408	407	3.9598005445855
784	409	408	4.528853008836
784	410	409	6.3319097320186
784	411	410	5.5755994422719
784	412	411	5.7166884222573
784	413	412	10.377839562793
784	414	413	3.072666851129
785	408	407	2774.4273071429
785	409	408	2758.6541580765
785	410	409	2717.518593291
785	411	410	2660.5866079837
785	412	411	2588.3955126288
785	413	412	2498.4579212792
785	414	413	2396.1713869055
786	408	407	1013.4
786	409	408	1013.4
786	410	409	1013.4
786	411	410	1013.4
786	412	411	1013.4
786	413	412	1013.4
786	414	413	1013.4
787	409	408	1.5906422160566
787	410	409	4.1483134188456
787	411	410	5.7413024433423
787	412	411	7.2801064271945
787	413	412	9.0697506889468
787	414	413	10.315079064098
788	410	409	2.5576712027891
788	411	410	1.5929890244966
788	412	411	1.5388039838523
788	413	412	1.7896442617523
788	414	413	1.2453283751508
789	410	409	3.8737244698382
789	411	410	3.6085884058915
789	412	411	4.1966765705835
789	413	412	5.5282690846395
789	414	413	4.8047925225737
790	411	410	2774.4273071429
790	412	411	2749.4006016111
790	413	412	2710.4022611949
790	414	413	2657.1193019567
791	411	410	1013.4
791	412	411	1013.4
791	413	412	1013.4
791	414	413	1013.4
792	412	411	2.5238165302435
792	413	412	3.9327851630282
792	414	413	5.3733166411053
793	413	412	1.4089686327847
793	414	413	1.4405314780772
794	413	412	2.6407589367959
794	414	413	3.2489846250917
795	414	413	2774.4273071429
796	414	413	1013.4
