version 2
run General-0-20211106-10:54:10-4067
attr configname General
attr datetime 20211106-10:54:10
attr experiment General
attr inifile omnetpp.ini
attr iterationvars ""
attr iterationvarsf ""
attr measurement ""
attr network org.car2x.veins.nodes.Scenario
attr processid 4067
attr repetition 0
attr replication #0
attr resultdir results
attr runnumber 0
attr seedset 0
param *.playgroundSizeX 3000m
param *.playgroundSizeY 2000m
param *.playgroundSizeZ 50m
param *.manager.updateInterval 1s
param *.manager.host "\"localhost\""
param *.manager.port 9999
param *.manager.autoShutdown true
param *.manager.launchConfig "xmldoc(\"veins.launchd.xml\")"
param *.annotations.draw true
param *.connectionManager.sendDirect true
param *.connectionManager.maxInterfDist 500m
param *.connectionManager.drawMaxIntfDist false
param *.**.nic.mac1609_4.useServiceChannel false
param *.**.nic.mac1609_4.txPower 20mW
param *.**.nic.mac1609_4.bitrate 6Mbps
param *.**.nic.phy80211p.minPowerLevel -110dBm
param *.**.nic.phy80211p.useNoiseFloor true
param *.**.nic.phy80211p.noiseFloor -98dBm
param *.**.nic.phy80211p.decider "xmldoc(\"config.xml\")"
param *.**.nic.phy80211p.analogueModels "xmldoc(\"config.xml\")"
param *.**.nic.phy80211p.usePropagationDelay true
param *.**.nic.phy80211p.antenna "xmldoc(\"antenna.xml\", \"/root/Antenna[@id='monopole']\")"
param *.node[*].nic.phy80211p.antennaOffsetY "0 m"
param *.node[*].nic.phy80211p.antennaOffsetZ "0 m"
param *.node[*].applType "\"InteractingVehicle\""
param *.node[*].appl.headerLength "88 bit"
param *.node[*].appl.dataLengthBits "512 bit"
param *.node[*].appl.sendBeacons false
param *.node[*].appl.dataOnSch false
param *.node[*].appl.beaconInterval 1s
param *.node[*].veinsmobility.x 0
param *.node[*].veinsmobility.y 0
param *.node[*].veinsmobility.z 0
param *.obstacles.obstacles "xmldoc(\"config.xml\", \"//AnalogueModel[@type='SimpleObstacleShadowing']/obstacles\")"

vector 0 Scenario.node[0].veinsmobility posx ETV
vector 1 Scenario.node[0].veinsmobility posy ETV
vector 2 Scenario.node[1].veinsmobility posx ETV
vector 3 Scenario.node[1].veinsmobility posy ETV
0	2	1	2774.4273071429
1	2	1	1013.4
2	2	1	2378.1077071429
3	2	1	59.632292857143
vector 4 Scenario.node[0].veinsmobility speed ETV
vector 5 Scenario.node[1].veinsmobility speed ETV
0	3	2	2748.7788840879
1	3	2	1013.4
2	3	2	2366.9072153225
3	3	2	70.832784677533
4	3	2	2.5865135943983
5	3	2	1.5972831639228
vector 6 Scenario.node[0].veinsmobility acceleration ETV
vector 7 Scenario.node[0].veinsmobility co2emission ETV
vector 8 Scenario.node[1].veinsmobility acceleration ETV
vector 9 Scenario.node[1].veinsmobility co2emission ETV
0	4	3	2702.0465996144
1	4	3	1013.4
2	4	3	2340.1984368018
3	4	3	97.54156319819
4	4	3	4.7127142603975
5	4	3	3.8088936578948
6	4	3	2.1262006659992
7	4	3	3.7618728991628
8	4	3	2.211610493972
9	4	3	3.328978911834
0	5	4	2636.0018628406
1	5	4	1013.4
2	5	4	2295.4470733637
3	5	4	142.29292663632
4	5	4	6.6602772863582
5	5	4	6.3819161273073
6	5	4	1.9475630259607
7	5	4	4.584670330842
8	5	4	2.5730224694125
9	5	4	5.3992915792338
0	6	5	2550.6092976852
1	6	5	1013.4
2	6	5	2236.9725745118
3	6	5	200.76742548824
4	6	5	8.6114078109851
5	6	5	8.3389492205111
6	6	5	1.9511305246269
7	6	5	5.6336839244473
8	6	5	1.9570330932038
9	6	5	5.4988625648564
0	7	6	2445.8256279277
1	7	6	1013.4
2	7	6	2166.0425788535
3	7	6	271.69742114651
4	7	6	10.566902523325
5	7	6	10.115206519398
6	7	6	1.9554947123397
7	7	6	6.7086534962574
8	7	6	1.7762572988868
9	7	6	6.0236636293657
0	8	7	2315.3570397226
1	8	7	1013.4
2	8	7	2080.919296506
3	8	7	356.82070349396
4	8	7	13.157096493267
5	8	7	12.13928708951
6	8	7	2.5901939699426
7	8	7	10.168244903929
8	8	7	2.024080570112
9	8	7	7.7824390349409
0	9	8	2163.3262326893
1	9	8	1013.4
2	9	8	1985.6334043852
3	9	8	452.10659561479
4	9	8	15.33153708188
5	9	8	13.588559652969
6	9	8	2.1744405886125
7	9	8	10.216847086916
8	9	8	1.449272563459
9	9	8	6.7434411261902
0	10	9	2013.6466910839
1	10	9	1013.4
2	10	9	1891.1051099527
3	10	9	546.63489004731
4	10	9	15.094423869109
5	10	9	13.480519930075
6	10	9	-0.23711321277078
7	10	9	1.2932986909428
8	10	9	-0.10803972289432
9	10	9	1.6356044603287
0	11	10	1861.7226422811
1	11	10	1013.4
2	11	10	1793.5375419686
3	11	10	644.20245803138
4	11	10	15.320771054897
5	11	10	13.913945582473
6	11	10	0.22634718578774
7	11	10	3.0170284506088
8	11	10	0.43342565239873
9	11	10	3.4834399707214
0	12	11	1708.138363313
1	12	11	1013.4
2	12	11	1696.7431347482
3	12	11	740.99686525177
4	12	11	15.488196860507
5	12	11	13.803686435764
6	12	11	0.16742580560967
7	12	11	2.8253155837191
8	12	11	-0.11025914670899
9	12	11	1.6520649681329
0	13	12	1557.1998062978
1	13	12	1013.4
2	13	12	1596.6804563157
3	13	12	841.05954368427
4	13	12	15.22138919816
5	13	12	14.269769056595
6	13	12	-0.2668076623464
7	13	12	1.1913230077145
8	13	12	0.46608262083027
9	13	12	3.6696638259564
0	14	13	1434.5123421471
1	14	13	1013.4
2	14	13	1510.7508802735
3	14	13	926.98911972648
4	14	13	14.36512790294
5	14	13	12.254271267391
6	14	13	-0.85626129521988
7	14	13	0.973
8	14	13	-2.0154977892034
9	14	13	0.973
0	15	14	1419.7141897674
1	15	14	1013.4
2	15	14	1456.376268517
3	15	14	981.36373148299
4	15	14	14.789478198948
5	15	14	7.7542712673911
6	15	14	0.42435029600747
7	15	14	3.6347758687501
8	15	14	-4.5
9	15	14	0.973
0	16	15	1266.5610427131
1	16	15	1013.4
2	16	15	1427.6978230669
3	16	15	1009.552804734
4	16	15	15.413573130217
5	16	15	9.4323008540919
6	16	15	0.62409493126906
7	16	15	4.5101431359823
8	16	15	1.6780295867007
9	16	15	5.4570071674507
0	17	16	1114.4307890539
1	17	16	1013.4
2	17	16	1396.979684148
3	17	16	1013.4
4	17	16	15.271164872191
5	17	16	11.318843301096
6	17	16	-0.14240825802553
7	17	16	1.6515635752056
8	17	16	1.8865424470045
9	17	16	6.9361704205912
0	18	17	960.85055975754
1	18	17	1013.4
2	18	17	1258.5733756237
3	18	17	1013.4
4	18	17	15.41671657201
5	18	17	13.893525488758
6	18	17	0.14555169981904
7	18	17	2.7329813290599
8	18	17	2.5746821876615
9	18	17	10.648882061499
0	19	18	814.9941873629
1	19	18	1013.4
2	19	18	1119.5066398103
3	19	18	1013.4
4	19	18	14.641379061175
5	19	18	13.95982061267
6	19	18	-0.77533751083538
7	19	18	0.973
8	19	18	0.06629512391261
9	19	18	2.2577709523834
0	20	19	663.04324548723
1	20	19	1013.4
2	20	19	983.82925110617
3	20	19	1013.4
4	20	19	15.253165166379
5	20	19	13.619590597471
6	20	19	0.61178610520437
7	20	19	4.4225792017069
8	20	19	-0.34023001519963
9	20	19	0.973
0	21	20	520.57424195538
1	21	20	1013.4
2	21	20	844.20545019968
3	21	20	1013.4
4	21	20	14.301347626649
5	21	20	14.015740015136
6	21	20	-0.95181753973011
7	21	20	0.973
8	21	20	0.39614941766486
9	21	20	3.3785737511716
0	22	21	367.47147591766
1	22	21	1013.4
2	22	21	705.4263266523
3	22	21	1013.4
4	22	21	15.36878777437
5	22	21	13.930949469504
6	22	21	1.0674401477212
7	22	21	6.1404030120539
8	22	21	-0.084790545632131
9	22	21	1.7471120909585
0	23	22	215.92973251681
1	23	22	1013.4
2	23	22	560.52619395363
3	23	22	1013.4
4	23	22	15.212088935819
5	23	22	14.545389646163
6	23	22	-0.15669883855153
7	23	22	1.5945470091518
8	23	22	0.61444017665926
9	23	22	4.249833709982
0	24	23	73.072962170594
1	24	23	1013.4
2	24	23	421.77225272195
3	24	23	1013.4
4	24	23	14.340272500642
5	24	23	13.928421614027
6	24	23	-0.87181643517688
7	24	23	0.973
8	24	23	-0.61696803213563
9	24	23	0.973
2	25	24	288.90347580933
3	25	24	1013.4
5	25	24	13.337656053236
8	25	24	-0.5907655607909
9	25	24	0.973
2	26	25	145.03979392929
3	26	25	1013.4
5	26	25	14.441348464658
8	26	25	1.1036924114218
9	26	25	5.9261279289038

