version 2
run General-0-20211130-12:21:54-12649
attr configname General
attr datetime 20211130-12:21:54
attr experiment General
attr inifile omnetpp.ini
attr iterationvars ""
attr iterationvarsf ""
attr measurement ""
attr network org.car2x.veins.nodes.Scenario
attr processid 12649
attr repetition 0
attr replication #0
attr resultdir results
attr runnumber 0
attr seedset 0
param *.playgroundSizeX 3000m
param *.playgroundSizeY 2000m
param *.playgroundSizeZ 50m
param *.manager.updateInterval 1s
param *.manager.host "\"localhost\""
param *.manager.port 9999
param *.manager.autoShutdown true
param *.manager.launchConfig "xmldoc(\"veins.launchd.xml\")"
param *.annotations.draw true
param *.connectionManager.sendDirect true
param *.connectionManager.maxInterfDist 500m
param *.connectionManager.drawMaxIntfDist false
param *.**.nic.mac1609_4.useServiceChannel false
param *.**.nic.mac1609_4.txPower 20mW
param *.**.nic.mac1609_4.bitrate 6Mbps
param *.**.nic.phy80211p.minPowerLevel -110dBm
param *.**.nic.phy80211p.useNoiseFloor true
param *.**.nic.phy80211p.noiseFloor -98dBm
param *.**.nic.phy80211p.decider "xmldoc(\"config.xml\")"
param *.**.nic.phy80211p.analogueModels "xmldoc(\"config.xml\")"
param *.**.nic.phy80211p.usePropagationDelay true
param *.**.nic.phy80211p.antenna "xmldoc(\"antenna.xml\", \"/root/Antenna[@id='monopole']\")"
param *.node[*].nic.phy80211p.antennaOffsetY "0 m"
param *.node[*].nic.phy80211p.antennaOffsetZ "0 m"
param *.node[*].applType "\"InteractingVehicle\""
param *.node[*].appl.headerLength "88 bit"
param *.node[*].appl.dataLengthBits "512 bit"
param *.node[*].appl.sendBeacons false
param *.node[*].appl.dataOnSch false
param *.node[*].appl.beaconInterval 1s
param *.node[*].veinsmobility.x 0
param *.node[*].veinsmobility.y 0
param *.node[*].veinsmobility.z 0
param *.obstacles.obstacles "xmldoc(\"config.xml\", \"//AnalogueModel[@type='SimpleObstacleShadowing']/obstacles\")"

scalar Scenario.node[0].appl generatedWSMs 0
scalar Scenario.node[0].appl receivedWSMs 0
scalar Scenario.node[0].appl generatedBSMs 26
scalar Scenario.node[0].appl receivedBSMs 0
scalar Scenario.node[0].appl generatedWSAs 0
scalar Scenario.node[0].appl receivedWSAs 0
scalar Scenario.node[0].nic.phy80211p busyTime 0
scalar Scenario.node[0].nic.mac1609_4 ReceivedUnicastPackets 0
scalar Scenario.node[0].nic.mac1609_4 ReceivedBroadcasts 0
scalar Scenario.node[0].nic.mac1609_4 SentPackets 26
scalar Scenario.node[0].nic.mac1609_4 SentAcknowledgements 0
scalar Scenario.node[0].nic.mac1609_4 RetriesExceeded 0
scalar Scenario.node[0].nic.mac1609_4 SNIRLostPackets 0
scalar Scenario.node[0].nic.mac1609_4 RXTXLostPackets 0
scalar Scenario.node[0].nic.mac1609_4 TotalLostPackets 0
scalar Scenario.node[0].nic.mac1609_4 DroppedPacketsInMac 0
scalar Scenario.node[0].nic.mac1609_4 TooLittleTime 0
scalar Scenario.node[0].nic.mac1609_4 TimesIntoBackoff 26
scalar Scenario.node[0].nic.mac1609_4 SlotsBackoff 43
scalar Scenario.node[0].nic.mac1609_4 NumInternalContention 0
scalar Scenario.node[0].nic.mac1609_4 totalBusyTime 0.001274
scalar Scenario.node[0].nic.mac1609_4 retriesExceeded:count 0
attr source org_car2x_veins_modules_mac_sigRetriesExceeded
scalar Scenario.node[0].nic.mac1609_4 sentAcks:count 0
attr source org_car2x_veins_modules_mac_sigSentAck
scalar Scenario.node[0].nic.mac1609_4 sentPackets:count 26
attr source org_car2x_veins_modules_mac_sigSentPacket
scalar Scenario.node[0].nic.mac1609_4 collisions:count 0
attr source org_car2x_veins_modules_mac_sigCollision
scalar Scenario.node[0].nic.mac1609_4 channelBusy:timeavg 4.9e-05
attr source org_car2x_veins_modules_mac_sigChannelBusy
scalar Scenario.node[0].veinsmobility startTime 8
scalar Scenario.node[0].veinsmobility totalTime 25
scalar Scenario.node[0].veinsmobility stopTime 34
scalar Scenario.node[0].veinsmobility minSpeed 2.3656493975548
scalar Scenario.node[0].veinsmobility maxSpeed 15.36878777437
scalar Scenario.node[0].veinsmobility totalDistance 2733.236989011
scalar Scenario.node[0].veinsmobility totalCO2Emission 101.71888614564
scalar Scenario.node[1].appl generatedWSMs 0
scalar Scenario.node[1].appl receivedWSMs 0
scalar Scenario.node[1].appl generatedBSMs 25
scalar Scenario.node[1].appl receivedBSMs 0
scalar Scenario.node[1].appl generatedWSAs 0
scalar Scenario.node[1].appl receivedWSAs 0
scalar Scenario.node[1].nic.phy80211p busyTime 3.264e-05
scalar Scenario.node[1].nic.mac1609_4 ReceivedUnicastPackets 0
scalar Scenario.node[1].nic.mac1609_4 ReceivedBroadcasts 17
scalar Scenario.node[1].nic.mac1609_4 SentPackets 25
scalar Scenario.node[1].nic.mac1609_4 SentAcknowledgements 0
scalar Scenario.node[1].nic.mac1609_4 RetriesExceeded 0
scalar Scenario.node[1].nic.mac1609_4 SNIRLostPackets 0
scalar Scenario.node[1].nic.mac1609_4 RXTXLostPackets 0
scalar Scenario.node[1].nic.mac1609_4 TotalLostPackets 0
scalar Scenario.node[1].nic.mac1609_4 DroppedPacketsInMac 0
scalar Scenario.node[1].nic.mac1609_4 TooLittleTime 0
scalar Scenario.node[1].nic.mac1609_4 TimesIntoBackoff 25
scalar Scenario.node[1].nic.mac1609_4 SlotsBackoff 44
scalar Scenario.node[1].nic.mac1609_4 NumInternalContention 0
scalar Scenario.node[1].nic.mac1609_4 totalBusyTime 0.002041
scalar Scenario.node[1].nic.mac1609_4 retriesExceeded:count 0
attr source org_car2x_veins_modules_mac_sigRetriesExceeded
scalar Scenario.node[1].nic.mac1609_4 sentAcks:count 0
attr source org_car2x_veins_modules_mac_sigSentAck
scalar Scenario.node[1].nic.mac1609_4 sentPackets:count 25
attr source org_car2x_veins_modules_mac_sigSentPacket
scalar Scenario.node[1].nic.mac1609_4 collisions:count 0
attr source org_car2x_veins_modules_mac_sigCollision
scalar Scenario.node[1].nic.mac1609_4 channelBusy:timeavg 8.164e-05
attr source org_car2x_veins_modules_mac_sigChannelBusy
scalar Scenario.node[1].veinsmobility startTime 15
scalar Scenario.node[1].veinsmobility totalTime 24
scalar Scenario.node[1].veinsmobility stopTime 40
scalar Scenario.node[1].veinsmobility minSpeed 1.5972831639228
scalar Scenario.node[1].veinsmobility maxSpeed 14.541321233554
scalar Scenario.node[1].veinsmobility totalDistance 2613.7791400615
scalar Scenario.node[1].veinsmobility totalCO2Emission 87.580227885196
scalar Scenario.node[2].appl generatedWSMs 0
scalar Scenario.node[2].appl receivedWSMs 0
scalar Scenario.node[2].appl generatedBSMs 27
scalar Scenario.node[2].appl receivedBSMs 0
scalar Scenario.node[2].appl generatedWSAs 0
scalar Scenario.node[2].appl receivedWSAs 0
scalar Scenario.node[2].nic.phy80211p busyTime 7.1111111111111e-05
scalar Scenario.node[2].nic.mac1609_4 ReceivedUnicastPackets 0
scalar Scenario.node[2].nic.mac1609_4 ReceivedBroadcasts 40
scalar Scenario.node[2].nic.mac1609_4 SentPackets 27
scalar Scenario.node[2].nic.mac1609_4 SentAcknowledgements 0
scalar Scenario.node[2].nic.mac1609_4 RetriesExceeded 0
scalar Scenario.node[2].nic.mac1609_4 SNIRLostPackets 0
scalar Scenario.node[2].nic.mac1609_4 RXTXLostPackets 0
scalar Scenario.node[2].nic.mac1609_4 TotalLostPackets 0
scalar Scenario.node[2].nic.mac1609_4 DroppedPacketsInMac 0
scalar Scenario.node[2].nic.mac1609_4 TooLittleTime 0
scalar Scenario.node[2].nic.mac1609_4 TimesIntoBackoff 27
scalar Scenario.node[2].nic.mac1609_4 SlotsBackoff 46
scalar Scenario.node[2].nic.mac1609_4 NumInternalContention 0
scalar Scenario.node[2].nic.mac1609_4 totalBusyTime 0.003243
scalar Scenario.node[2].nic.mac1609_4 retriesExceeded:count 0
attr source org_car2x_veins_modules_mac_sigRetriesExceeded
scalar Scenario.node[2].nic.mac1609_4 sentAcks:count 0
attr source org_car2x_veins_modules_mac_sigSentAck
scalar Scenario.node[2].nic.mac1609_4 sentPackets:count 27
attr source org_car2x_veins_modules_mac_sigSentPacket
scalar Scenario.node[2].nic.mac1609_4 collisions:count 0
attr source org_car2x_veins_modules_mac_sigCollision
scalar Scenario.node[2].nic.mac1609_4 channelBusy:timeavg 0.00012011111111111
attr source org_car2x_veins_modules_mac_sigChannelBusy
scalar Scenario.node[2].veinsmobility startTime 18
scalar Scenario.node[2].veinsmobility totalTime 26
scalar Scenario.node[2].veinsmobility stopTime 45
scalar Scenario.node[2].veinsmobility minSpeed 1.7762572988868
scalar Scenario.node[2].veinsmobility maxSpeed 14.266292073225
scalar Scenario.node[2].veinsmobility totalDistance 2659.6368770512
scalar Scenario.node[2].veinsmobility totalCO2Emission 97.633803485788
scalar Scenario.node[3].appl generatedWSMs 0
scalar Scenario.node[3].appl receivedWSMs 0
scalar Scenario.node[3].appl generatedBSMs 27
scalar Scenario.node[3].appl receivedBSMs 0
scalar Scenario.node[3].appl generatedWSAs 0
scalar Scenario.node[3].appl receivedWSAs 0
scalar Scenario.node[3].nic.phy80211p busyTime 4.4444444444444e-05
scalar Scenario.node[3].nic.mac1609_4 ReceivedUnicastPackets 0
scalar Scenario.node[3].nic.mac1609_4 ReceivedBroadcasts 25
scalar Scenario.node[3].nic.mac1609_4 SentPackets 27
scalar Scenario.node[3].nic.mac1609_4 SentAcknowledgements 0
scalar Scenario.node[3].nic.mac1609_4 RetriesExceeded 0
scalar Scenario.node[3].nic.mac1609_4 SNIRLostPackets 0
scalar Scenario.node[3].nic.mac1609_4 RXTXLostPackets 0
scalar Scenario.node[3].nic.mac1609_4 TotalLostPackets 0
scalar Scenario.node[3].nic.mac1609_4 DroppedPacketsInMac 0
scalar Scenario.node[3].nic.mac1609_4 TooLittleTime 0
scalar Scenario.node[3].nic.mac1609_4 TimesIntoBackoff 27
scalar Scenario.node[3].nic.mac1609_4 SlotsBackoff 38
scalar Scenario.node[3].nic.mac1609_4 NumInternalContention 0
scalar Scenario.node[3].nic.mac1609_4 totalBusyTime 0.002523
scalar Scenario.node[3].nic.mac1609_4 retriesExceeded:count 0
attr source org_car2x_veins_modules_mac_sigRetriesExceeded
scalar Scenario.node[3].nic.mac1609_4 sentAcks:count 0
attr source org_car2x_veins_modules_mac_sigSentAck
scalar Scenario.node[3].nic.mac1609_4 sentPackets:count 27
attr source org_car2x_veins_modules_mac_sigSentPacket
scalar Scenario.node[3].nic.mac1609_4 collisions:count 0
attr source org_car2x_veins_modules_mac_sigCollision
scalar Scenario.node[3].nic.mac1609_4 channelBusy:timeavg 9.3444444444444e-05
attr source org_car2x_veins_modules_mac_sigChannelBusy
scalar Scenario.node[3].veinsmobility startTime 21
scalar Scenario.node[3].veinsmobility totalTime 26
scalar Scenario.node[3].veinsmobility stopTime 48
scalar Scenario.node[3].veinsmobility minSpeed 2.5672767461976
scalar Scenario.node[3].veinsmobility maxSpeed 14.070183269891
scalar Scenario.node[3].veinsmobility totalDistance 2646.1679201185
scalar Scenario.node[3].veinsmobility totalCO2Emission 94.079315300576
scalar Scenario.node[4].appl generatedWSMs 0
scalar Scenario.node[4].appl receivedWSMs 0
scalar Scenario.node[4].appl generatedBSMs 28
scalar Scenario.node[4].appl receivedBSMs 0
scalar Scenario.node[4].appl generatedWSAs 0
scalar Scenario.node[4].appl receivedWSAs 0
scalar Scenario.node[4].nic.phy80211p busyTime 0
scalar Scenario.node[4].nic.mac1609_4 ReceivedUnicastPackets 0
scalar Scenario.node[4].nic.mac1609_4 ReceivedBroadcasts 0
scalar Scenario.node[4].nic.mac1609_4 SentPackets 28
scalar Scenario.node[4].nic.mac1609_4 SentAcknowledgements 0
scalar Scenario.node[4].nic.mac1609_4 RetriesExceeded 0
scalar Scenario.node[4].nic.mac1609_4 SNIRLostPackets 0
scalar Scenario.node[4].nic.mac1609_4 RXTXLostPackets 0
scalar Scenario.node[4].nic.mac1609_4 TotalLostPackets 0
scalar Scenario.node[4].nic.mac1609_4 DroppedPacketsInMac 0
scalar Scenario.node[4].nic.mac1609_4 TooLittleTime 0
scalar Scenario.node[4].nic.mac1609_4 TimesIntoBackoff 28
scalar Scenario.node[4].nic.mac1609_4 SlotsBackoff 39
scalar Scenario.node[4].nic.mac1609_4 NumInternalContention 0
scalar Scenario.node[4].nic.mac1609_4 totalBusyTime 0.001372
scalar Scenario.node[4].nic.mac1609_4 retriesExceeded:count 0
attr source org_car2x_veins_modules_mac_sigRetriesExceeded
scalar Scenario.node[4].nic.mac1609_4 sentAcks:count 0
attr source org_car2x_veins_modules_mac_sigSentAck
scalar Scenario.node[4].nic.mac1609_4 sentPackets:count 28
attr source org_car2x_veins_modules_mac_sigSentPacket
scalar Scenario.node[4].nic.mac1609_4 collisions:count 0
attr source org_car2x_veins_modules_mac_sigCollision
scalar Scenario.node[4].nic.mac1609_4 channelBusy:timeavg 4.9e-05
attr source org_car2x_veins_modules_mac_sigChannelBusy
scalar Scenario.node[4].veinsmobility startTime 35
scalar Scenario.node[4].veinsmobility totalTime 27
scalar Scenario.node[4].veinsmobility stopTime 63
scalar Scenario.node[4].veinsmobility minSpeed 2.1146570136538
scalar Scenario.node[4].veinsmobility maxSpeed 12.193138653529
scalar Scenario.node[4].veinsmobility totalDistance 2633.9411432266
scalar Scenario.node[4].veinsmobility totalCO2Emission 78.668643717503
scalar Scenario.node[5].appl generatedWSMs 0
scalar Scenario.node[5].appl receivedWSMs 0
scalar Scenario.node[5].appl generatedBSMs 26
scalar Scenario.node[5].appl receivedBSMs 0
scalar Scenario.node[5].appl generatedWSAs 0
scalar Scenario.node[5].appl receivedWSAs 0
scalar Scenario.node[5].nic.phy80211p busyTime 2.9538461538462e-05
scalar Scenario.node[5].nic.mac1609_4 ReceivedUnicastPackets 0
scalar Scenario.node[5].nic.mac1609_4 ReceivedBroadcasts 15
scalar Scenario.node[5].nic.mac1609_4 SentPackets 26
scalar Scenario.node[5].nic.mac1609_4 SentAcknowledgements 0
scalar Scenario.node[5].nic.mac1609_4 RetriesExceeded 0
scalar Scenario.node[5].nic.mac1609_4 SNIRLostPackets 1
scalar Scenario.node[5].nic.mac1609_4 RXTXLostPackets 0
scalar Scenario.node[5].nic.mac1609_4 TotalLostPackets 1
scalar Scenario.node[5].nic.mac1609_4 DroppedPacketsInMac 0
scalar Scenario.node[5].nic.mac1609_4 TooLittleTime 0
scalar Scenario.node[5].nic.mac1609_4 TimesIntoBackoff 26
scalar Scenario.node[5].nic.mac1609_4 SlotsBackoff 38
scalar Scenario.node[5].nic.mac1609_4 NumInternalContention 0
scalar Scenario.node[5].nic.mac1609_4 totalBusyTime 0.002042
scalar Scenario.node[5].nic.mac1609_4 retriesExceeded:count 0
attr source org_car2x_veins_modules_mac_sigRetriesExceeded
scalar Scenario.node[5].nic.mac1609_4 sentAcks:count 0
attr source org_car2x_veins_modules_mac_sigSentAck
scalar Scenario.node[5].nic.mac1609_4 sentPackets:count 26
attr source org_car2x_veins_modules_mac_sigSentPacket
scalar Scenario.node[5].nic.mac1609_4 collisions:count 0
attr source org_car2x_veins_modules_mac_sigCollision
scalar Scenario.node[5].nic.mac1609_4 channelBusy:timeavg 7.8538461538462e-05
attr source org_car2x_veins_modules_mac_sigChannelBusy
scalar Scenario.node[5].veinsmobility startTime 43
scalar Scenario.node[5].veinsmobility totalTime 25
scalar Scenario.node[5].veinsmobility stopTime 69
scalar Scenario.node[5].veinsmobility minSpeed 1.9664169136435
scalar Scenario.node[5].veinsmobility maxSpeed 15.912803712374
scalar Scenario.node[5].veinsmobility totalDistance 2646.6292916877
scalar Scenario.node[5].veinsmobility totalCO2Emission 103.48527911467
scalar Scenario.node[6].appl generatedWSMs 0
scalar Scenario.node[6].appl receivedWSMs 0
scalar Scenario.node[6].appl generatedBSMs 29
scalar Scenario.node[6].appl receivedBSMs 0
scalar Scenario.node[6].appl generatedWSAs 0
scalar Scenario.node[6].appl receivedWSAs 0
scalar Scenario.node[6].nic.phy80211p busyTime 2.648275862069e-05
scalar Scenario.node[6].nic.mac1609_4 ReceivedUnicastPackets 0
scalar Scenario.node[6].nic.mac1609_4 ReceivedBroadcasts 15
scalar Scenario.node[6].nic.mac1609_4 SentPackets 29
scalar Scenario.node[6].nic.mac1609_4 SentAcknowledgements 0
scalar Scenario.node[6].nic.mac1609_4 RetriesExceeded 0
scalar Scenario.node[6].nic.mac1609_4 SNIRLostPackets 1
scalar Scenario.node[6].nic.mac1609_4 RXTXLostPackets 0
scalar Scenario.node[6].nic.mac1609_4 TotalLostPackets 1
scalar Scenario.node[6].nic.mac1609_4 DroppedPacketsInMac 0
scalar Scenario.node[6].nic.mac1609_4 TooLittleTime 0
scalar Scenario.node[6].nic.mac1609_4 TimesIntoBackoff 29
scalar Scenario.node[6].nic.mac1609_4 SlotsBackoff 40
scalar Scenario.node[6].nic.mac1609_4 NumInternalContention 0
scalar Scenario.node[6].nic.mac1609_4 totalBusyTime 0.002189
scalar Scenario.node[6].nic.mac1609_4 retriesExceeded:count 0
attr source org_car2x_veins_modules_mac_sigRetriesExceeded
scalar Scenario.node[6].nic.mac1609_4 sentAcks:count 0
attr source org_car2x_veins_modules_mac_sigSentAck
scalar Scenario.node[6].nic.mac1609_4 sentPackets:count 29
attr source org_car2x_veins_modules_mac_sigSentPacket
scalar Scenario.node[6].nic.mac1609_4 collisions:count 0
attr source org_car2x_veins_modules_mac_sigCollision
scalar Scenario.node[6].nic.mac1609_4 channelBusy:timeavg 7.548275862069e-05
attr source org_car2x_veins_modules_mac_sigChannelBusy
scalar Scenario.node[6].veinsmobility startTime 44
scalar Scenario.node[6].veinsmobility totalTime 28
scalar Scenario.node[6].veinsmobility stopTime 73
scalar Scenario.node[6].veinsmobility minSpeed 1.9329202841036
scalar Scenario.node[6].veinsmobility maxSpeed 13.014085994741
scalar Scenario.node[6].veinsmobility totalDistance 2727.6545611007
scalar Scenario.node[6].veinsmobility totalCO2Emission 85.554470012978
scalar Scenario.node[7].appl generatedWSMs 0
scalar Scenario.node[7].appl receivedWSMs 0
scalar Scenario.node[7].appl generatedBSMs 33
scalar Scenario.node[7].appl receivedBSMs 0
scalar Scenario.node[7].appl generatedWSAs 0
scalar Scenario.node[7].appl receivedWSAs 0
scalar Scenario.node[7].nic.phy80211p busyTime 0
scalar Scenario.node[7].nic.mac1609_4 ReceivedUnicastPackets 0
scalar Scenario.node[7].nic.mac1609_4 ReceivedBroadcasts 0
scalar Scenario.node[7].nic.mac1609_4 SentPackets 33
scalar Scenario.node[7].nic.mac1609_4 SentAcknowledgements 0
scalar Scenario.node[7].nic.mac1609_4 RetriesExceeded 0
scalar Scenario.node[7].nic.mac1609_4 SNIRLostPackets 0
scalar Scenario.node[7].nic.mac1609_4 RXTXLostPackets 0
scalar Scenario.node[7].nic.mac1609_4 TotalLostPackets 0
scalar Scenario.node[7].nic.mac1609_4 DroppedPacketsInMac 0
scalar Scenario.node[7].nic.mac1609_4 TooLittleTime 0
scalar Scenario.node[7].nic.mac1609_4 TimesIntoBackoff 33
scalar Scenario.node[7].nic.mac1609_4 SlotsBackoff 49
scalar Scenario.node[7].nic.mac1609_4 NumInternalContention 0
scalar Scenario.node[7].nic.mac1609_4 totalBusyTime 0.001617
scalar Scenario.node[7].nic.mac1609_4 retriesExceeded:count 0
attr source org_car2x_veins_modules_mac_sigRetriesExceeded
scalar Scenario.node[7].nic.mac1609_4 sentAcks:count 0
attr source org_car2x_veins_modules_mac_sigSentAck
scalar Scenario.node[7].nic.mac1609_4 sentPackets:count 33
attr source org_car2x_veins_modules_mac_sigSentPacket
scalar Scenario.node[7].nic.mac1609_4 collisions:count 0
attr source org_car2x_veins_modules_mac_sigCollision
scalar Scenario.node[7].nic.mac1609_4 channelBusy:timeavg 4.9e-05
attr source org_car2x_veins_modules_mac_sigChannelBusy
scalar Scenario.node[7].veinsmobility startTime 51
scalar Scenario.node[7].veinsmobility totalTime 32
scalar Scenario.node[7].veinsmobility stopTime 84
scalar Scenario.node[7].veinsmobility minSpeed 1.9267319109989
scalar Scenario.node[7].veinsmobility maxSpeed 10.585336184703
scalar Scenario.node[7].veinsmobility totalDistance 2745.1418399451
scalar Scenario.node[7].veinsmobility totalCO2Emission 75.110478901127
scalar Scenario.node[8].appl generatedWSMs 0
scalar Scenario.node[8].appl receivedWSMs 0
scalar Scenario.node[8].appl generatedBSMs 26
scalar Scenario.node[8].appl receivedBSMs 0
scalar Scenario.node[8].appl generatedWSAs 0
scalar Scenario.node[8].appl receivedWSAs 0
scalar Scenario.node[8].nic.phy80211p busyTime 4.2461538461538e-05
scalar Scenario.node[8].nic.mac1609_4 ReceivedUnicastPackets 0
scalar Scenario.node[8].nic.mac1609_4 ReceivedBroadcasts 22
scalar Scenario.node[8].nic.mac1609_4 SentPackets 26
scalar Scenario.node[8].nic.mac1609_4 SentAcknowledgements 0
scalar Scenario.node[8].nic.mac1609_4 RetriesExceeded 0
scalar Scenario.node[8].nic.mac1609_4 SNIRLostPackets 1
scalar Scenario.node[8].nic.mac1609_4 RXTXLostPackets 0
scalar Scenario.node[8].nic.mac1609_4 TotalLostPackets 1
scalar Scenario.node[8].nic.mac1609_4 DroppedPacketsInMac 0
scalar Scenario.node[8].nic.mac1609_4 TooLittleTime 0
scalar Scenario.node[8].nic.mac1609_4 TimesIntoBackoff 26
scalar Scenario.node[8].nic.mac1609_4 SlotsBackoff 49
scalar Scenario.node[8].nic.mac1609_4 NumInternalContention 0
scalar Scenario.node[8].nic.mac1609_4 totalBusyTime 0.002378
scalar Scenario.node[8].nic.mac1609_4 retriesExceeded:count 0
attr source org_car2x_veins_modules_mac_sigRetriesExceeded
scalar Scenario.node[8].nic.mac1609_4 sentAcks:count 0
attr source org_car2x_veins_modules_mac_sigSentAck
scalar Scenario.node[8].nic.mac1609_4 sentPackets:count 26
attr source org_car2x_veins_modules_mac_sigSentPacket
scalar Scenario.node[8].nic.mac1609_4 collisions:count 0
attr source org_car2x_veins_modules_mac_sigCollision
scalar Scenario.node[8].nic.mac1609_4 channelBusy:timeavg 9.1461538461538e-05
attr source org_car2x_veins_modules_mac_sigChannelBusy
scalar Scenario.node[8].veinsmobility startTime 67
scalar Scenario.node[8].veinsmobility totalTime 25
scalar Scenario.node[8].veinsmobility stopTime 93
scalar Scenario.node[8].veinsmobility minSpeed 2.1855615584878
scalar Scenario.node[8].veinsmobility maxSpeed 14.569684662741
scalar Scenario.node[8].veinsmobility totalDistance 2706.3263031522
scalar Scenario.node[8].veinsmobility totalCO2Emission 90.682427399213
scalar Scenario.node[9].appl generatedWSMs 0
scalar Scenario.node[9].appl receivedWSMs 0
scalar Scenario.node[9].appl generatedBSMs 26
scalar Scenario.node[9].appl receivedBSMs 0
scalar Scenario.node[9].appl generatedWSAs 0
scalar Scenario.node[9].appl receivedWSAs 0
scalar Scenario.node[9].nic.phy80211p busyTime 7.0153846153846e-05
scalar Scenario.node[9].nic.mac1609_4 ReceivedUnicastPackets 0
scalar Scenario.node[9].nic.mac1609_4 ReceivedBroadcasts 37
scalar Scenario.node[9].nic.mac1609_4 SentPackets 26
scalar Scenario.node[9].nic.mac1609_4 SentAcknowledgements 0
scalar Scenario.node[9].nic.mac1609_4 RetriesExceeded 0
scalar Scenario.node[9].nic.mac1609_4 SNIRLostPackets 1
scalar Scenario.node[9].nic.mac1609_4 RXTXLostPackets 0
scalar Scenario.node[9].nic.mac1609_4 TotalLostPackets 1
scalar Scenario.node[9].nic.mac1609_4 DroppedPacketsInMac 0
scalar Scenario.node[9].nic.mac1609_4 TooLittleTime 0
scalar Scenario.node[9].nic.mac1609_4 TimesIntoBackoff 26
scalar Scenario.node[9].nic.mac1609_4 SlotsBackoff 34
scalar Scenario.node[9].nic.mac1609_4 NumInternalContention 0
scalar Scenario.node[9].nic.mac1609_4 totalBusyTime 0.003098
scalar Scenario.node[9].nic.mac1609_4 retriesExceeded:count 0
attr source org_car2x_veins_modules_mac_sigRetriesExceeded
scalar Scenario.node[9].nic.mac1609_4 sentAcks:count 0
attr source org_car2x_veins_modules_mac_sigSentAck
scalar Scenario.node[9].nic.mac1609_4 sentPackets:count 26
attr source org_car2x_veins_modules_mac_sigSentPacket
scalar Scenario.node[9].nic.mac1609_4 collisions:count 0
attr source org_car2x_veins_modules_mac_sigCollision
scalar Scenario.node[9].nic.mac1609_4 channelBusy:timeavg 0.00011915384615385
attr source org_car2x_veins_modules_mac_sigChannelBusy
scalar Scenario.node[9].veinsmobility startTime 68
scalar Scenario.node[9].veinsmobility totalTime 25
scalar Scenario.node[9].veinsmobility stopTime 94
scalar Scenario.node[9].veinsmobility minSpeed 1.5227142807329
scalar Scenario.node[9].veinsmobility maxSpeed 16.629404778406
scalar Scenario.node[9].veinsmobility totalDistance 2599.4849025284
scalar Scenario.node[9].veinsmobility totalCO2Emission 104.29437450666
scalar Scenario.node[11].appl generatedWSMs 0
scalar Scenario.node[11].appl receivedWSMs 0
scalar Scenario.node[11].appl generatedBSMs 28
scalar Scenario.node[11].appl receivedBSMs 0
scalar Scenario.node[11].appl generatedWSAs 0
scalar Scenario.node[11].appl receivedWSAs 0
scalar Scenario.node[11].nic.phy80211p busyTime 8.4e-05
scalar Scenario.node[11].nic.mac1609_4 ReceivedUnicastPackets 0
scalar Scenario.node[11].nic.mac1609_4 ReceivedBroadcasts 48
scalar Scenario.node[11].nic.mac1609_4 SentPackets 28
scalar Scenario.node[11].nic.mac1609_4 SentAcknowledgements 0
scalar Scenario.node[11].nic.mac1609_4 RetriesExceeded 0
scalar Scenario.node[11].nic.mac1609_4 SNIRLostPackets 1
scalar Scenario.node[11].nic.mac1609_4 RXTXLostPackets 0
scalar Scenario.node[11].nic.mac1609_4 TotalLostPackets 1
scalar Scenario.node[11].nic.mac1609_4 DroppedPacketsInMac 0
scalar Scenario.node[11].nic.mac1609_4 TooLittleTime 0
scalar Scenario.node[11].nic.mac1609_4 TimesIntoBackoff 28
scalar Scenario.node[11].nic.mac1609_4 SlotsBackoff 47
scalar Scenario.node[11].nic.mac1609_4 NumInternalContention 0
scalar Scenario.node[11].nic.mac1609_4 totalBusyTime 0.003724
scalar Scenario.node[11].nic.mac1609_4 retriesExceeded:count 0
attr source org_car2x_veins_modules_mac_sigRetriesExceeded
scalar Scenario.node[11].nic.mac1609_4 sentAcks:count 0
attr source org_car2x_veins_modules_mac_sigSentAck
scalar Scenario.node[11].nic.mac1609_4 sentPackets:count 28
attr source org_car2x_veins_modules_mac_sigSentPacket
scalar Scenario.node[11].nic.mac1609_4 collisions:count 0
attr source org_car2x_veins_modules_mac_sigCollision
scalar Scenario.node[11].nic.mac1609_4 channelBusy:timeavg 0.000133
attr source org_car2x_veins_modules_mac_sigChannelBusy
scalar Scenario.node[11].veinsmobility startTime 73
scalar Scenario.node[11].veinsmobility totalTime 27
scalar Scenario.node[11].veinsmobility stopTime 101
scalar Scenario.node[11].veinsmobility minSpeed 1.5927202033345
scalar Scenario.node[11].veinsmobility maxSpeed 13.12589790893
scalar Scenario.node[11].veinsmobility totalDistance 2723.3226763978
scalar Scenario.node[11].veinsmobility totalCO2Emission 79.545766676663
scalar Scenario.node[13].appl generatedWSMs 0
scalar Scenario.node[13].appl receivedWSMs 0
scalar Scenario.node[13].appl generatedBSMs 28
scalar Scenario.node[13].appl receivedBSMs 0
scalar Scenario.node[13].appl generatedWSAs 0
scalar Scenario.node[13].appl receivedWSAs 0
scalar Scenario.node[13].nic.phy80211p busyTime 9.2571428571429e-05
scalar Scenario.node[13].nic.mac1609_4 ReceivedUnicastPackets 0
scalar Scenario.node[13].nic.mac1609_4 ReceivedBroadcasts 51
scalar Scenario.node[13].nic.mac1609_4 SentPackets 28
scalar Scenario.node[13].nic.mac1609_4 SentAcknowledgements 0
scalar Scenario.node[13].nic.mac1609_4 RetriesExceeded 0
scalar Scenario.node[13].nic.mac1609_4 SNIRLostPackets 3
scalar Scenario.node[13].nic.mac1609_4 RXTXLostPackets 0
scalar Scenario.node[13].nic.mac1609_4 TotalLostPackets 3
scalar Scenario.node[13].nic.mac1609_4 DroppedPacketsInMac 0
scalar Scenario.node[13].nic.mac1609_4 TooLittleTime 0
scalar Scenario.node[13].nic.mac1609_4 TimesIntoBackoff 28
scalar Scenario.node[13].nic.mac1609_4 SlotsBackoff 33
scalar Scenario.node[13].nic.mac1609_4 NumInternalContention 0
scalar Scenario.node[13].nic.mac1609_4 totalBusyTime 0.003964
scalar Scenario.node[13].nic.mac1609_4 retriesExceeded:count 0
attr source org_car2x_veins_modules_mac_sigRetriesExceeded
scalar Scenario.node[13].nic.mac1609_4 sentAcks:count 0
attr source org_car2x_veins_modules_mac_sigSentAck
scalar Scenario.node[13].nic.mac1609_4 sentPackets:count 28
attr source org_car2x_veins_modules_mac_sigSentPacket
scalar Scenario.node[13].nic.mac1609_4 collisions:count 0
attr source org_car2x_veins_modules_mac_sigCollision
scalar Scenario.node[13].nic.mac1609_4 channelBusy:timeavg 0.00014157142857143
attr source org_car2x_veins_modules_mac_sigChannelBusy
scalar Scenario.node[13].veinsmobility startTime 76
scalar Scenario.node[13].veinsmobility totalTime 27
scalar Scenario.node[13].veinsmobility stopTime 104
scalar Scenario.node[13].veinsmobility minSpeed 2.0778205730254
scalar Scenario.node[13].veinsmobility maxSpeed 12.874934194889
scalar Scenario.node[13].veinsmobility totalDistance 2705.6203542123
scalar Scenario.node[13].veinsmobility totalCO2Emission 84.4191012482
scalar Scenario.node[10].appl generatedWSMs 0
scalar Scenario.node[10].appl receivedWSMs 0
scalar Scenario.node[10].appl generatedBSMs 35
scalar Scenario.node[10].appl receivedBSMs 0
scalar Scenario.node[10].appl generatedWSAs 0
scalar Scenario.node[10].appl receivedWSAs 0
scalar Scenario.node[10].nic.phy80211p busyTime 0.00010834285714286
scalar Scenario.node[10].nic.mac1609_4 ReceivedUnicastPackets 0
scalar Scenario.node[10].nic.mac1609_4 ReceivedBroadcasts 77
scalar Scenario.node[10].nic.mac1609_4 SentPackets 35
scalar Scenario.node[10].nic.mac1609_4 SentAcknowledgements 0
scalar Scenario.node[10].nic.mac1609_4 RetriesExceeded 0
scalar Scenario.node[10].nic.mac1609_4 SNIRLostPackets 2
scalar Scenario.node[10].nic.mac1609_4 RXTXLostPackets 0
scalar Scenario.node[10].nic.mac1609_4 TotalLostPackets 2
scalar Scenario.node[10].nic.mac1609_4 DroppedPacketsInMac 0
scalar Scenario.node[10].nic.mac1609_4 TooLittleTime 0
scalar Scenario.node[10].nic.mac1609_4 TimesIntoBackoff 35
scalar Scenario.node[10].nic.mac1609_4 SlotsBackoff 52
scalar Scenario.node[10].nic.mac1609_4 NumInternalContention 0
scalar Scenario.node[10].nic.mac1609_4 totalBusyTime 0.005507
scalar Scenario.node[10].nic.mac1609_4 retriesExceeded:count 0
attr source org_car2x_veins_modules_mac_sigRetriesExceeded
scalar Scenario.node[10].nic.mac1609_4 sentAcks:count 0
attr source org_car2x_veins_modules_mac_sigSentAck
scalar Scenario.node[10].nic.mac1609_4 sentPackets:count 35
attr source org_car2x_veins_modules_mac_sigSentPacket
scalar Scenario.node[10].nic.mac1609_4 collisions:count 0
attr source org_car2x_veins_modules_mac_sigCollision
scalar Scenario.node[10].nic.mac1609_4 channelBusy:timeavg 0.00015734285714286
attr source org_car2x_veins_modules_mac_sigChannelBusy
scalar Scenario.node[10].veinsmobility startTime 71
scalar Scenario.node[10].veinsmobility totalTime 34
scalar Scenario.node[10].veinsmobility stopTime 106
scalar Scenario.node[10].veinsmobility minSpeed 0.0013567217483625
scalar Scenario.node[10].veinsmobility maxSpeed 15.445970888672
scalar Scenario.node[10].veinsmobility totalDistance 2744.2211567478
scalar Scenario.node[10].veinsmobility totalCO2Emission 122.61728152198
scalar Scenario.node[12].appl generatedWSMs 0
scalar Scenario.node[12].appl receivedWSMs 0
scalar Scenario.node[12].appl generatedBSMs 32
scalar Scenario.node[12].appl receivedBSMs 0
scalar Scenario.node[12].appl generatedWSAs 0
scalar Scenario.node[12].appl receivedWSAs 0
scalar Scenario.node[12].nic.phy80211p busyTime 8.85e-05
scalar Scenario.node[12].nic.mac1609_4 ReceivedUnicastPackets 0
scalar Scenario.node[12].nic.mac1609_4 ReceivedBroadcasts 57
scalar Scenario.node[12].nic.mac1609_4 SentPackets 32
scalar Scenario.node[12].nic.mac1609_4 SentAcknowledgements 0
scalar Scenario.node[12].nic.mac1609_4 RetriesExceeded 0
scalar Scenario.node[12].nic.mac1609_4 SNIRLostPackets 2
scalar Scenario.node[12].nic.mac1609_4 RXTXLostPackets 0
scalar Scenario.node[12].nic.mac1609_4 TotalLostPackets 2
scalar Scenario.node[12].nic.mac1609_4 DroppedPacketsInMac 0
scalar Scenario.node[12].nic.mac1609_4 TooLittleTime 0
scalar Scenario.node[12].nic.mac1609_4 TimesIntoBackoff 32
scalar Scenario.node[12].nic.mac1609_4 SlotsBackoff 48
scalar Scenario.node[12].nic.mac1609_4 NumInternalContention 0
scalar Scenario.node[12].nic.mac1609_4 totalBusyTime 0.0044
scalar Scenario.node[12].nic.mac1609_4 retriesExceeded:count 0
attr source org_car2x_veins_modules_mac_sigRetriesExceeded
scalar Scenario.node[12].nic.mac1609_4 sentAcks:count 0
attr source org_car2x_veins_modules_mac_sigSentAck
scalar Scenario.node[12].nic.mac1609_4 sentPackets:count 32
attr source org_car2x_veins_modules_mac_sigSentPacket
scalar Scenario.node[12].nic.mac1609_4 collisions:count 0
attr source org_car2x_veins_modules_mac_sigCollision
scalar Scenario.node[12].nic.mac1609_4 channelBusy:timeavg 0.0001375
attr source org_car2x_veins_modules_mac_sigChannelBusy
scalar Scenario.node[12].veinsmobility startTime 76
scalar Scenario.node[12].veinsmobility totalTime 31
scalar Scenario.node[12].veinsmobility stopTime 108
scalar Scenario.node[12].veinsmobility minSpeed 0.0015936116157533
scalar Scenario.node[12].veinsmobility maxSpeed 13.531602893246
scalar Scenario.node[12].veinsmobility totalDistance 2701.9587408452
scalar Scenario.node[12].veinsmobility totalCO2Emission 100.44400104236
scalar Scenario.node[14].appl generatedWSMs 0
scalar Scenario.node[14].appl receivedWSMs 0
scalar Scenario.node[14].appl generatedBSMs 27
scalar Scenario.node[14].appl receivedBSMs 0
scalar Scenario.node[14].appl generatedWSAs 0
scalar Scenario.node[14].appl receivedWSAs 0
scalar Scenario.node[14].nic.phy80211p busyTime 6.2222222222222e-05
scalar Scenario.node[14].nic.mac1609_4 ReceivedUnicastPackets 0
scalar Scenario.node[14].nic.mac1609_4 ReceivedBroadcasts 35
scalar Scenario.node[14].nic.mac1609_4 SentPackets 27
scalar Scenario.node[14].nic.mac1609_4 SentAcknowledgements 0
scalar Scenario.node[14].nic.mac1609_4 RetriesExceeded 0
scalar Scenario.node[14].nic.mac1609_4 SNIRLostPackets 0
scalar Scenario.node[14].nic.mac1609_4 RXTXLostPackets 0
scalar Scenario.node[14].nic.mac1609_4 TotalLostPackets 0
scalar Scenario.node[14].nic.mac1609_4 DroppedPacketsInMac 0
scalar Scenario.node[14].nic.mac1609_4 TooLittleTime 0
scalar Scenario.node[14].nic.mac1609_4 TimesIntoBackoff 27
scalar Scenario.node[14].nic.mac1609_4 SlotsBackoff 34
scalar Scenario.node[14].nic.mac1609_4 NumInternalContention 0
scalar Scenario.node[14].nic.mac1609_4 totalBusyTime 0.003003
scalar Scenario.node[14].nic.mac1609_4 retriesExceeded:count 0
attr source org_car2x_veins_modules_mac_sigRetriesExceeded
scalar Scenario.node[14].nic.mac1609_4 sentAcks:count 0
attr source org_car2x_veins_modules_mac_sigSentAck
scalar Scenario.node[14].nic.mac1609_4 sentPackets:count 27
attr source org_car2x_veins_modules_mac_sigSentPacket
scalar Scenario.node[14].nic.mac1609_4 collisions:count 0
attr source org_car2x_veins_modules_mac_sigCollision
scalar Scenario.node[14].nic.mac1609_4 channelBusy:timeavg 0.00011122222222222
attr source org_car2x_veins_modules_mac_sigChannelBusy
scalar Scenario.node[14].veinsmobility startTime 83
scalar Scenario.node[14].veinsmobility totalTime 26
scalar Scenario.node[14].veinsmobility stopTime 110
scalar Scenario.node[14].veinsmobility minSpeed 1.8259285141714
scalar Scenario.node[14].veinsmobility maxSpeed 14.310477309187
scalar Scenario.node[14].veinsmobility totalDistance 2705.0477908092
scalar Scenario.node[14].veinsmobility totalCO2Emission 92.035234956049
scalar Scenario.node[16].appl generatedWSMs 0
scalar Scenario.node[16].appl receivedWSMs 0
scalar Scenario.node[16].appl generatedBSMs 27
scalar Scenario.node[16].appl receivedBSMs 0
scalar Scenario.node[16].appl generatedWSAs 0
scalar Scenario.node[16].appl receivedWSAs 0
scalar Scenario.node[16].nic.phy80211p busyTime 5.1555555555556e-05
scalar Scenario.node[16].nic.mac1609_4 ReceivedUnicastPackets 0
scalar Scenario.node[16].nic.mac1609_4 ReceivedBroadcasts 28
scalar Scenario.node[16].nic.mac1609_4 SentPackets 27
scalar Scenario.node[16].nic.mac1609_4 SentAcknowledgements 0
scalar Scenario.node[16].nic.mac1609_4 RetriesExceeded 0
scalar Scenario.node[16].nic.mac1609_4 SNIRLostPackets 1
scalar Scenario.node[16].nic.mac1609_4 RXTXLostPackets 0
scalar Scenario.node[16].nic.mac1609_4 TotalLostPackets 1
scalar Scenario.node[16].nic.mac1609_4 DroppedPacketsInMac 0
scalar Scenario.node[16].nic.mac1609_4 TooLittleTime 0
scalar Scenario.node[16].nic.mac1609_4 TimesIntoBackoff 27
scalar Scenario.node[16].nic.mac1609_4 SlotsBackoff 41
scalar Scenario.node[16].nic.mac1609_4 NumInternalContention 0
scalar Scenario.node[16].nic.mac1609_4 totalBusyTime 0.002715
scalar Scenario.node[16].nic.mac1609_4 retriesExceeded:count 0
attr source org_car2x_veins_modules_mac_sigRetriesExceeded
scalar Scenario.node[16].nic.mac1609_4 sentAcks:count 0
attr source org_car2x_veins_modules_mac_sigSentAck
scalar Scenario.node[16].nic.mac1609_4 sentPackets:count 27
attr source org_car2x_veins_modules_mac_sigSentPacket
scalar Scenario.node[16].nic.mac1609_4 collisions:count 0
attr source org_car2x_veins_modules_mac_sigCollision
scalar Scenario.node[16].nic.mac1609_4 channelBusy:timeavg 0.00010055555555556
attr source org_car2x_veins_modules_mac_sigChannelBusy
scalar Scenario.node[16].veinsmobility startTime 89
scalar Scenario.node[16].veinsmobility totalTime 26
scalar Scenario.node[16].veinsmobility stopTime 116
scalar Scenario.node[16].veinsmobility minSpeed 2.5922004112741
scalar Scenario.node[16].veinsmobility maxSpeed 14.617607154896
scalar Scenario.node[16].veinsmobility totalDistance 2678.6251510706
scalar Scenario.node[16].veinsmobility totalCO2Emission 93.340365426157
scalar Scenario.node[17].appl generatedWSMs 0
scalar Scenario.node[17].appl receivedWSMs 0
scalar Scenario.node[17].appl generatedBSMs 35
scalar Scenario.node[17].appl receivedBSMs 0
scalar Scenario.node[17].appl generatedWSAs 0
scalar Scenario.node[17].appl receivedWSAs 0
scalar Scenario.node[17].nic.phy80211p busyTime 7.9542857142857e-05
scalar Scenario.node[17].nic.mac1609_4 ReceivedUnicastPackets 0
scalar Scenario.node[17].nic.mac1609_4 ReceivedBroadcasts 57
scalar Scenario.node[17].nic.mac1609_4 SentPackets 35
scalar Scenario.node[17].nic.mac1609_4 SentAcknowledgements 0
scalar Scenario.node[17].nic.mac1609_4 RetriesExceeded 0
scalar Scenario.node[17].nic.mac1609_4 SNIRLostPackets 1
scalar Scenario.node[17].nic.mac1609_4 RXTXLostPackets 0
scalar Scenario.node[17].nic.mac1609_4 TotalLostPackets 1
scalar Scenario.node[17].nic.mac1609_4 DroppedPacketsInMac 0
scalar Scenario.node[17].nic.mac1609_4 TooLittleTime 0
scalar Scenario.node[17].nic.mac1609_4 TimesIntoBackoff 35
scalar Scenario.node[17].nic.mac1609_4 SlotsBackoff 48
scalar Scenario.node[17].nic.mac1609_4 NumInternalContention 0
scalar Scenario.node[17].nic.mac1609_4 totalBusyTime 0.004499
scalar Scenario.node[17].nic.mac1609_4 retriesExceeded:count 0
attr source org_car2x_veins_modules_mac_sigRetriesExceeded
scalar Scenario.node[17].nic.mac1609_4 sentAcks:count 0
attr source org_car2x_veins_modules_mac_sigSentAck
scalar Scenario.node[17].nic.mac1609_4 sentPackets:count 35
attr source org_car2x_veins_modules_mac_sigSentPacket
scalar Scenario.node[17].nic.mac1609_4 collisions:count 0
attr source org_car2x_veins_modules_mac_sigCollision
scalar Scenario.node[17].nic.mac1609_4 channelBusy:timeavg 0.00012854285714286
attr source org_car2x_veins_modules_mac_sigChannelBusy
scalar Scenario.node[17].veinsmobility startTime 92
scalar Scenario.node[17].veinsmobility totalTime 34
scalar Scenario.node[17].veinsmobility stopTime 127
scalar Scenario.node[17].veinsmobility minSpeed 1.4229795925319
scalar Scenario.node[17].veinsmobility maxSpeed 10.032237270768
scalar Scenario.node[17].veinsmobility totalDistance 2741.8726401023
scalar Scenario.node[17].veinsmobility totalCO2Emission 77.021227731109
scalar Scenario.node[15].appl generatedWSMs 0
scalar Scenario.node[15].appl receivedWSMs 0
scalar Scenario.node[15].appl generatedBSMs 40
scalar Scenario.node[15].appl receivedBSMs 0
scalar Scenario.node[15].appl generatedWSAs 0
scalar Scenario.node[15].appl receivedWSAs 0
scalar Scenario.node[15].nic.phy80211p busyTime 9.6e-05
scalar Scenario.node[15].nic.mac1609_4 ReceivedUnicastPackets 0
scalar Scenario.node[15].nic.mac1609_4 ReceivedBroadcasts 79
scalar Scenario.node[15].nic.mac1609_4 SentPackets 40
scalar Scenario.node[15].nic.mac1609_4 SentAcknowledgements 0
scalar Scenario.node[15].nic.mac1609_4 RetriesExceeded 0
scalar Scenario.node[15].nic.mac1609_4 SNIRLostPackets 1
scalar Scenario.node[15].nic.mac1609_4 RXTXLostPackets 0
scalar Scenario.node[15].nic.mac1609_4 TotalLostPackets 1
scalar Scenario.node[15].nic.mac1609_4 DroppedPacketsInMac 0
scalar Scenario.node[15].nic.mac1609_4 TooLittleTime 0
scalar Scenario.node[15].nic.mac1609_4 TimesIntoBackoff 40
scalar Scenario.node[15].nic.mac1609_4 SlotsBackoff 61
scalar Scenario.node[15].nic.mac1609_4 NumInternalContention 0
scalar Scenario.node[15].nic.mac1609_4 totalBusyTime 0.0058
scalar Scenario.node[15].nic.mac1609_4 retriesExceeded:count 0
attr source org_car2x_veins_modules_mac_sigRetriesExceeded
scalar Scenario.node[15].nic.mac1609_4 sentAcks:count 0
attr source org_car2x_veins_modules_mac_sigSentAck
scalar Scenario.node[15].nic.mac1609_4 sentPackets:count 40
attr source org_car2x_veins_modules_mac_sigSentPacket
scalar Scenario.node[15].nic.mac1609_4 collisions:count 0
attr source org_car2x_veins_modules_mac_sigCollision
scalar Scenario.node[15].nic.mac1609_4 channelBusy:timeavg 0.000145
attr source org_car2x_veins_modules_mac_sigChannelBusy
scalar Scenario.node[15].veinsmobility startTime 88
scalar Scenario.node[15].veinsmobility totalTime 39
scalar Scenario.node[15].veinsmobility stopTime 128
scalar Scenario.node[15].veinsmobility minSpeed 0
scalar Scenario.node[15].veinsmobility maxSpeed 14.403691733885
scalar Scenario.node[15].veinsmobility totalDistance 2647.9164601402
scalar Scenario.node[15].veinsmobility totalCO2Emission 107.63618783447
scalar Scenario.node[18].appl generatedWSMs 0
scalar Scenario.node[18].appl receivedWSMs 0
scalar Scenario.node[18].appl generatedBSMs 32
scalar Scenario.node[18].appl receivedBSMs 0
scalar Scenario.node[18].appl generatedWSAs 0
scalar Scenario.node[18].appl receivedWSAs 0
scalar Scenario.node[18].nic.phy80211p busyTime 9.9e-05
scalar Scenario.node[18].nic.mac1609_4 ReceivedUnicastPackets 0
scalar Scenario.node[18].nic.mac1609_4 ReceivedBroadcasts 65
scalar Scenario.node[18].nic.mac1609_4 SentPackets 32
scalar Scenario.node[18].nic.mac1609_4 SentAcknowledgements 0
scalar Scenario.node[18].nic.mac1609_4 RetriesExceeded 0
scalar Scenario.node[18].nic.mac1609_4 SNIRLostPackets 1
scalar Scenario.node[18].nic.mac1609_4 RXTXLostPackets 0
scalar Scenario.node[18].nic.mac1609_4 TotalLostPackets 1
scalar Scenario.node[18].nic.mac1609_4 DroppedPacketsInMac 0
scalar Scenario.node[18].nic.mac1609_4 TooLittleTime 0
scalar Scenario.node[18].nic.mac1609_4 TimesIntoBackoff 32
scalar Scenario.node[18].nic.mac1609_4 SlotsBackoff 52
scalar Scenario.node[18].nic.mac1609_4 NumInternalContention 0
scalar Scenario.node[18].nic.mac1609_4 totalBusyTime 0.004736
scalar Scenario.node[18].nic.mac1609_4 retriesExceeded:count 0
attr source org_car2x_veins_modules_mac_sigRetriesExceeded
scalar Scenario.node[18].nic.mac1609_4 sentAcks:count 0
attr source org_car2x_veins_modules_mac_sigSentAck
scalar Scenario.node[18].nic.mac1609_4 sentPackets:count 32
attr source org_car2x_veins_modules_mac_sigSentPacket
scalar Scenario.node[18].nic.mac1609_4 collisions:count 0
attr source org_car2x_veins_modules_mac_sigCollision
scalar Scenario.node[18].nic.mac1609_4 channelBusy:timeavg 0.000148
attr source org_car2x_veins_modules_mac_sigChannelBusy
scalar Scenario.node[18].veinsmobility startTime 98
scalar Scenario.node[18].veinsmobility totalTime 31
scalar Scenario.node[18].veinsmobility stopTime 130
scalar Scenario.node[18].veinsmobility minSpeed 0.82174676293191
scalar Scenario.node[18].veinsmobility maxSpeed 15.384598791374
scalar Scenario.node[18].veinsmobility totalDistance 2662.8339464009
scalar Scenario.node[18].veinsmobility totalCO2Emission 110.71463661999
scalar Scenario.node[19].appl generatedWSMs 0
scalar Scenario.node[19].appl receivedWSMs 0
scalar Scenario.node[19].appl generatedBSMs 31
scalar Scenario.node[19].appl receivedBSMs 0
scalar Scenario.node[19].appl generatedWSAs 0
scalar Scenario.node[19].appl receivedWSAs 0
scalar Scenario.node[19].nic.phy80211p busyTime 7.741935483871e-05
scalar Scenario.node[19].nic.mac1609_4 ReceivedUnicastPackets 0
scalar Scenario.node[19].nic.mac1609_4 ReceivedBroadcasts 50
scalar Scenario.node[19].nic.mac1609_4 SentPackets 31
scalar Scenario.node[19].nic.mac1609_4 SentAcknowledgements 0
scalar Scenario.node[19].nic.mac1609_4 RetriesExceeded 0
scalar Scenario.node[19].nic.mac1609_4 SNIRLostPackets 0
scalar Scenario.node[19].nic.mac1609_4 RXTXLostPackets 0
scalar Scenario.node[19].nic.mac1609_4 TotalLostPackets 0
scalar Scenario.node[19].nic.mac1609_4 DroppedPacketsInMac 0
scalar Scenario.node[19].nic.mac1609_4 TooLittleTime 0
scalar Scenario.node[19].nic.mac1609_4 TimesIntoBackoff 31
scalar Scenario.node[19].nic.mac1609_4 SlotsBackoff 50
scalar Scenario.node[19].nic.mac1609_4 NumInternalContention 0
scalar Scenario.node[19].nic.mac1609_4 totalBusyTime 0.003919
scalar Scenario.node[19].nic.mac1609_4 retriesExceeded:count 0
attr source org_car2x_veins_modules_mac_sigRetriesExceeded
scalar Scenario.node[19].nic.mac1609_4 sentAcks:count 0
attr source org_car2x_veins_modules_mac_sigSentAck
scalar Scenario.node[19].nic.mac1609_4 sentPackets:count 31
attr source org_car2x_veins_modules_mac_sigSentPacket
scalar Scenario.node[19].nic.mac1609_4 collisions:count 0
attr source org_car2x_veins_modules_mac_sigCollision
scalar Scenario.node[19].nic.mac1609_4 channelBusy:timeavg 0.00012641935483871
attr source org_car2x_veins_modules_mac_sigChannelBusy
scalar Scenario.node[19].veinsmobility startTime 101
scalar Scenario.node[19].veinsmobility totalTime 30
scalar Scenario.node[19].veinsmobility stopTime 132
scalar Scenario.node[19].veinsmobility minSpeed 1.5330851328559
scalar Scenario.node[19].veinsmobility maxSpeed 12.656332437257
scalar Scenario.node[19].veinsmobility totalDistance 2687.3784914644
scalar Scenario.node[19].veinsmobility totalCO2Emission 96.45461175346
scalar Scenario.node[20].appl generatedWSMs 0
scalar Scenario.node[20].appl receivedWSMs 0
scalar Scenario.node[20].appl generatedBSMs 25
scalar Scenario.node[20].appl receivedBSMs 0
scalar Scenario.node[20].appl generatedWSAs 0
scalar Scenario.node[20].appl receivedWSAs 0
scalar Scenario.node[20].nic.phy80211p busyTime 0
scalar Scenario.node[20].nic.mac1609_4 ReceivedUnicastPackets 0
scalar Scenario.node[20].nic.mac1609_4 ReceivedBroadcasts 0
scalar Scenario.node[20].nic.mac1609_4 SentPackets 25
scalar Scenario.node[20].nic.mac1609_4 SentAcknowledgements 0
scalar Scenario.node[20].nic.mac1609_4 RetriesExceeded 0
scalar Scenario.node[20].nic.mac1609_4 SNIRLostPackets 0
scalar Scenario.node[20].nic.mac1609_4 RXTXLostPackets 0
scalar Scenario.node[20].nic.mac1609_4 TotalLostPackets 0
scalar Scenario.node[20].nic.mac1609_4 DroppedPacketsInMac 0
scalar Scenario.node[20].nic.mac1609_4 TooLittleTime 0
scalar Scenario.node[20].nic.mac1609_4 TimesIntoBackoff 25
scalar Scenario.node[20].nic.mac1609_4 SlotsBackoff 47
scalar Scenario.node[20].nic.mac1609_4 NumInternalContention 0
scalar Scenario.node[20].nic.mac1609_4 totalBusyTime 0.001225
scalar Scenario.node[20].nic.mac1609_4 retriesExceeded:count 0
attr source org_car2x_veins_modules_mac_sigRetriesExceeded
scalar Scenario.node[20].nic.mac1609_4 sentAcks:count 0
attr source org_car2x_veins_modules_mac_sigSentAck
scalar Scenario.node[20].nic.mac1609_4 sentPackets:count 25
attr source org_car2x_veins_modules_mac_sigSentPacket
scalar Scenario.node[20].nic.mac1609_4 collisions:count 0
attr source org_car2x_veins_modules_mac_sigCollision
scalar Scenario.node[20].nic.mac1609_4 channelBusy:timeavg 4.9e-05
attr source org_car2x_veins_modules_mac_sigChannelBusy
scalar Scenario.node[20].veinsmobility startTime 127
scalar Scenario.node[20].veinsmobility totalTime 24
scalar Scenario.node[20].veinsmobility stopTime 152
scalar Scenario.node[20].veinsmobility minSpeed 2.4792870678008
scalar Scenario.node[20].veinsmobility maxSpeed 16.286468651218
scalar Scenario.node[20].veinsmobility totalDistance 2687.6548547917
scalar Scenario.node[20].veinsmobility totalCO2Emission 108.60413865734
scalar Scenario.node[21].appl generatedWSMs 0
scalar Scenario.node[21].appl receivedWSMs 0
scalar Scenario.node[21].appl generatedBSMs 30
scalar Scenario.node[21].appl receivedBSMs 0
scalar Scenario.node[21].appl generatedWSAs 0
scalar Scenario.node[21].appl receivedWSAs 0
scalar Scenario.node[21].nic.phy80211p busyTime 4.32e-05
scalar Scenario.node[21].nic.mac1609_4 ReceivedUnicastPackets 0
scalar Scenario.node[21].nic.mac1609_4 ReceivedBroadcasts 27
scalar Scenario.node[21].nic.mac1609_4 SentPackets 30
scalar Scenario.node[21].nic.mac1609_4 SentAcknowledgements 0
scalar Scenario.node[21].nic.mac1609_4 RetriesExceeded 0
scalar Scenario.node[21].nic.mac1609_4 SNIRLostPackets 0
scalar Scenario.node[21].nic.mac1609_4 RXTXLostPackets 0
scalar Scenario.node[21].nic.mac1609_4 TotalLostPackets 0
scalar Scenario.node[21].nic.mac1609_4 DroppedPacketsInMac 0
scalar Scenario.node[21].nic.mac1609_4 TooLittleTime 0
scalar Scenario.node[21].nic.mac1609_4 TimesIntoBackoff 30
scalar Scenario.node[21].nic.mac1609_4 SlotsBackoff 40
scalar Scenario.node[21].nic.mac1609_4 NumInternalContention 0
scalar Scenario.node[21].nic.mac1609_4 totalBusyTime 0.002766
scalar Scenario.node[21].nic.mac1609_4 retriesExceeded:count 0
attr source org_car2x_veins_modules_mac_sigRetriesExceeded
scalar Scenario.node[21].nic.mac1609_4 sentAcks:count 0
attr source org_car2x_veins_modules_mac_sigSentAck
scalar Scenario.node[21].nic.mac1609_4 sentPackets:count 30
attr source org_car2x_veins_modules_mac_sigSentPacket
scalar Scenario.node[21].nic.mac1609_4 collisions:count 0
attr source org_car2x_veins_modules_mac_sigCollision
scalar Scenario.node[21].nic.mac1609_4 channelBusy:timeavg 9.22e-05
attr source org_car2x_veins_modules_mac_sigChannelBusy
scalar Scenario.node[21].veinsmobility startTime 134
scalar Scenario.node[21].veinsmobility totalTime 29
scalar Scenario.node[21].veinsmobility stopTime 164
scalar Scenario.node[21].veinsmobility minSpeed 1.9476956124417
scalar Scenario.node[21].veinsmobility maxSpeed 12.272182056046
scalar Scenario.node[21].veinsmobility totalDistance 2721.7696735574
scalar Scenario.node[21].veinsmobility totalCO2Emission 81.82440273374
scalar Scenario.node[22].appl generatedWSMs 0
scalar Scenario.node[22].appl receivedWSMs 0
scalar Scenario.node[22].appl generatedBSMs 28
scalar Scenario.node[22].appl receivedBSMs 0
scalar Scenario.node[22].appl generatedWSAs 0
scalar Scenario.node[22].appl receivedWSAs 0
scalar Scenario.node[22].nic.phy80211p busyTime 4.9714285714286e-05
scalar Scenario.node[22].nic.mac1609_4 ReceivedUnicastPackets 0
scalar Scenario.node[22].nic.mac1609_4 ReceivedBroadcasts 29
scalar Scenario.node[22].nic.mac1609_4 SentPackets 28
scalar Scenario.node[22].nic.mac1609_4 SentAcknowledgements 0
scalar Scenario.node[22].nic.mac1609_4 RetriesExceeded 0
scalar Scenario.node[22].nic.mac1609_4 SNIRLostPackets 0
scalar Scenario.node[22].nic.mac1609_4 RXTXLostPackets 0
scalar Scenario.node[22].nic.mac1609_4 TotalLostPackets 0
scalar Scenario.node[22].nic.mac1609_4 DroppedPacketsInMac 0
scalar Scenario.node[22].nic.mac1609_4 TooLittleTime 0
scalar Scenario.node[22].nic.mac1609_4 TimesIntoBackoff 28
scalar Scenario.node[22].nic.mac1609_4 SlotsBackoff 37
scalar Scenario.node[22].nic.mac1609_4 NumInternalContention 0
scalar Scenario.node[22].nic.mac1609_4 totalBusyTime 0.002764
scalar Scenario.node[22].nic.mac1609_4 retriesExceeded:count 0
attr source org_car2x_veins_modules_mac_sigRetriesExceeded
scalar Scenario.node[22].nic.mac1609_4 sentAcks:count 0
attr source org_car2x_veins_modules_mac_sigSentAck
scalar Scenario.node[22].nic.mac1609_4 sentPackets:count 28
attr source org_car2x_veins_modules_mac_sigSentPacket
scalar Scenario.node[22].nic.mac1609_4 collisions:count 0
attr source org_car2x_veins_modules_mac_sigCollision
scalar Scenario.node[22].nic.mac1609_4 channelBusy:timeavg 9.8714285714286e-05
attr source org_car2x_veins_modules_mac_sigChannelBusy
scalar Scenario.node[22].veinsmobility startTime 137
scalar Scenario.node[22].veinsmobility totalTime 27
scalar Scenario.node[22].veinsmobility stopTime 165
scalar Scenario.node[22].veinsmobility minSpeed 2.116508761677
scalar Scenario.node[22].veinsmobility maxSpeed 13.644861397147
scalar Scenario.node[22].veinsmobility totalDistance 2630.3964525104
scalar Scenario.node[22].veinsmobility totalCO2Emission 84.870602889349
scalar Scenario.node[23].appl generatedWSMs 0
scalar Scenario.node[23].appl receivedWSMs 0
scalar Scenario.node[23].appl generatedBSMs 33
scalar Scenario.node[23].appl receivedBSMs 0
scalar Scenario.node[23].appl generatedWSAs 0
scalar Scenario.node[23].appl receivedWSAs 0
scalar Scenario.node[23].nic.phy80211p busyTime 4.3636363636364e-05
scalar Scenario.node[23].nic.mac1609_4 ReceivedUnicastPackets 0
scalar Scenario.node[23].nic.mac1609_4 ReceivedBroadcasts 30
scalar Scenario.node[23].nic.mac1609_4 SentPackets 33
scalar Scenario.node[23].nic.mac1609_4 SentAcknowledgements 0
scalar Scenario.node[23].nic.mac1609_4 RetriesExceeded 0
scalar Scenario.node[23].nic.mac1609_4 SNIRLostPackets 0
scalar Scenario.node[23].nic.mac1609_4 RXTXLostPackets 0
scalar Scenario.node[23].nic.mac1609_4 TotalLostPackets 0
scalar Scenario.node[23].nic.mac1609_4 DroppedPacketsInMac 0
scalar Scenario.node[23].nic.mac1609_4 TooLittleTime 0
scalar Scenario.node[23].nic.mac1609_4 TimesIntoBackoff 33
scalar Scenario.node[23].nic.mac1609_4 SlotsBackoff 51
scalar Scenario.node[23].nic.mac1609_4 NumInternalContention 0
scalar Scenario.node[23].nic.mac1609_4 totalBusyTime 0.003057
scalar Scenario.node[23].nic.mac1609_4 retriesExceeded:count 0
attr source org_car2x_veins_modules_mac_sigRetriesExceeded
scalar Scenario.node[23].nic.mac1609_4 sentAcks:count 0
attr source org_car2x_veins_modules_mac_sigSentAck
scalar Scenario.node[23].nic.mac1609_4 sentPackets:count 33
attr source org_car2x_veins_modules_mac_sigSentPacket
scalar Scenario.node[23].nic.mac1609_4 collisions:count 0
attr source org_car2x_veins_modules_mac_sigCollision
scalar Scenario.node[23].nic.mac1609_4 channelBusy:timeavg 9.2636363636364e-05
attr source org_car2x_veins_modules_mac_sigChannelBusy
scalar Scenario.node[23].veinsmobility startTime 142
scalar Scenario.node[23].veinsmobility totalTime 32
scalar Scenario.node[23].veinsmobility stopTime 175
scalar Scenario.node[23].veinsmobility minSpeed 1.3553227266762
scalar Scenario.node[23].veinsmobility maxSpeed 10.225692936648
scalar Scenario.node[23].veinsmobility totalDistance 2698.295346849
scalar Scenario.node[23].veinsmobility totalCO2Emission 74.403153575083
scalar Scenario.node[24].appl generatedWSMs 0
scalar Scenario.node[24].appl receivedWSMs 0
scalar Scenario.node[24].appl generatedBSMs 30
scalar Scenario.node[24].appl receivedBSMs 0
scalar Scenario.node[24].appl generatedWSAs 0
scalar Scenario.node[24].appl receivedWSAs 0
scalar Scenario.node[24].nic.phy80211p busyTime 6.72e-05
scalar Scenario.node[24].nic.mac1609_4 ReceivedUnicastPackets 0
scalar Scenario.node[24].nic.mac1609_4 ReceivedBroadcasts 42
scalar Scenario.node[24].nic.mac1609_4 SentPackets 30
scalar Scenario.node[24].nic.mac1609_4 SentAcknowledgements 0
scalar Scenario.node[24].nic.mac1609_4 RetriesExceeded 0
scalar Scenario.node[24].nic.mac1609_4 SNIRLostPackets 0
scalar Scenario.node[24].nic.mac1609_4 RXTXLostPackets 0
scalar Scenario.node[24].nic.mac1609_4 TotalLostPackets 0
scalar Scenario.node[24].nic.mac1609_4 DroppedPacketsInMac 0
scalar Scenario.node[24].nic.mac1609_4 TooLittleTime 0
scalar Scenario.node[24].nic.mac1609_4 TimesIntoBackoff 30
scalar Scenario.node[24].nic.mac1609_4 SlotsBackoff 48
scalar Scenario.node[24].nic.mac1609_4 NumInternalContention 0
scalar Scenario.node[24].nic.mac1609_4 totalBusyTime 0.003486
scalar Scenario.node[24].nic.mac1609_4 retriesExceeded:count 0
attr source org_car2x_veins_modules_mac_sigRetriesExceeded
scalar Scenario.node[24].nic.mac1609_4 sentAcks:count 0
attr source org_car2x_veins_modules_mac_sigSentAck
scalar Scenario.node[24].nic.mac1609_4 sentPackets:count 30
attr source org_car2x_veins_modules_mac_sigSentPacket
scalar Scenario.node[24].nic.mac1609_4 collisions:count 0
attr source org_car2x_veins_modules_mac_sigCollision
scalar Scenario.node[24].nic.mac1609_4 channelBusy:timeavg 0.0001162
attr source org_car2x_veins_modules_mac_sigChannelBusy
scalar Scenario.node[24].veinsmobility startTime 147
scalar Scenario.node[24].veinsmobility totalTime 29
scalar Scenario.node[24].veinsmobility stopTime 177
scalar Scenario.node[24].veinsmobility minSpeed 2.5024974079104
scalar Scenario.node[24].veinsmobility maxSpeed 13.057516863046
scalar Scenario.node[24].veinsmobility totalDistance 2742.2565995316
scalar Scenario.node[24].veinsmobility totalCO2Emission 89.439819249717
scalar Scenario.node[25].appl generatedWSMs 0
scalar Scenario.node[25].appl receivedWSMs 0
scalar Scenario.node[25].appl generatedBSMs 27
scalar Scenario.node[25].appl receivedBSMs 0
scalar Scenario.node[25].appl generatedWSAs 0
scalar Scenario.node[25].appl receivedWSAs 0
scalar Scenario.node[25].nic.phy80211p busyTime 3.2e-05
scalar Scenario.node[25].nic.mac1609_4 ReceivedUnicastPackets 0
scalar Scenario.node[25].nic.mac1609_4 ReceivedBroadcasts 18
scalar Scenario.node[25].nic.mac1609_4 SentPackets 27
scalar Scenario.node[25].nic.mac1609_4 SentAcknowledgements 0
scalar Scenario.node[25].nic.mac1609_4 RetriesExceeded 0
scalar Scenario.node[25].nic.mac1609_4 SNIRLostPackets 0
scalar Scenario.node[25].nic.mac1609_4 RXTXLostPackets 0
scalar Scenario.node[25].nic.mac1609_4 TotalLostPackets 0
scalar Scenario.node[25].nic.mac1609_4 DroppedPacketsInMac 0
scalar Scenario.node[25].nic.mac1609_4 TooLittleTime 0
scalar Scenario.node[25].nic.mac1609_4 TimesIntoBackoff 27
scalar Scenario.node[25].nic.mac1609_4 SlotsBackoff 33
scalar Scenario.node[25].nic.mac1609_4 NumInternalContention 0
scalar Scenario.node[25].nic.mac1609_4 totalBusyTime 0.002187
scalar Scenario.node[25].nic.mac1609_4 retriesExceeded:count 0
attr source org_car2x_veins_modules_mac_sigRetriesExceeded
scalar Scenario.node[25].nic.mac1609_4 sentAcks:count 0
attr source org_car2x_veins_modules_mac_sigSentAck
scalar Scenario.node[25].nic.mac1609_4 sentPackets:count 27
attr source org_car2x_veins_modules_mac_sigSentPacket
scalar Scenario.node[25].nic.mac1609_4 collisions:count 0
attr source org_car2x_veins_modules_mac_sigCollision
scalar Scenario.node[25].nic.mac1609_4 channelBusy:timeavg 8.1e-05
attr source org_car2x_veins_modules_mac_sigChannelBusy
scalar Scenario.node[25].veinsmobility startTime 152
scalar Scenario.node[25].veinsmobility totalTime 26
scalar Scenario.node[25].veinsmobility stopTime 179
scalar Scenario.node[25].veinsmobility minSpeed 1.3987569276011
scalar Scenario.node[25].veinsmobility maxSpeed 14.868470518832
scalar Scenario.node[25].veinsmobility totalDistance 2699.2366052394
scalar Scenario.node[25].veinsmobility totalCO2Emission 96.201286201614
scalar Scenario.node[26].appl generatedWSMs 0
scalar Scenario.node[26].appl receivedWSMs 0
scalar Scenario.node[26].appl generatedBSMs 28
scalar Scenario.node[26].appl receivedBSMs 0
scalar Scenario.node[26].appl generatedWSAs 0
scalar Scenario.node[26].appl receivedWSAs 0
scalar Scenario.node[26].nic.phy80211p busyTime 7.0285714285714e-05
scalar Scenario.node[26].nic.mac1609_4 ReceivedUnicastPackets 0
scalar Scenario.node[26].nic.mac1609_4 ReceivedBroadcasts 40
scalar Scenario.node[26].nic.mac1609_4 SentPackets 28
scalar Scenario.node[26].nic.mac1609_4 SentAcknowledgements 0
scalar Scenario.node[26].nic.mac1609_4 RetriesExceeded 0
scalar Scenario.node[26].nic.mac1609_4 SNIRLostPackets 1
scalar Scenario.node[26].nic.mac1609_4 RXTXLostPackets 0
scalar Scenario.node[26].nic.mac1609_4 TotalLostPackets 1
scalar Scenario.node[26].nic.mac1609_4 DroppedPacketsInMac 0
scalar Scenario.node[26].nic.mac1609_4 TooLittleTime 0
scalar Scenario.node[26].nic.mac1609_4 TimesIntoBackoff 28
scalar Scenario.node[26].nic.mac1609_4 SlotsBackoff 43
scalar Scenario.node[26].nic.mac1609_4 NumInternalContention 0
scalar Scenario.node[26].nic.mac1609_4 totalBusyTime 0.00334
scalar Scenario.node[26].nic.mac1609_4 retriesExceeded:count 0
attr source org_car2x_veins_modules_mac_sigRetriesExceeded
scalar Scenario.node[26].nic.mac1609_4 sentAcks:count 0
attr source org_car2x_veins_modules_mac_sigSentAck
scalar Scenario.node[26].nic.mac1609_4 sentPackets:count 28
attr source org_car2x_veins_modules_mac_sigSentPacket
scalar Scenario.node[26].nic.mac1609_4 collisions:count 0
attr source org_car2x_veins_modules_mac_sigCollision
scalar Scenario.node[26].nic.mac1609_4 channelBusy:timeavg 0.00011928571428571
attr source org_car2x_veins_modules_mac_sigChannelBusy
scalar Scenario.node[26].veinsmobility startTime 159
scalar Scenario.node[26].veinsmobility totalTime 27
scalar Scenario.node[26].veinsmobility stopTime 187
scalar Scenario.node[26].veinsmobility minSpeed 2.1854686802719
scalar Scenario.node[26].veinsmobility maxSpeed 13.558060851917
scalar Scenario.node[26].veinsmobility totalDistance 2695.88512879
scalar Scenario.node[26].veinsmobility totalCO2Emission 90.273161476467
scalar Scenario.node[28].appl generatedWSMs 0
scalar Scenario.node[28].appl receivedWSMs 0
scalar Scenario.node[28].appl generatedBSMs 27
scalar Scenario.node[28].appl receivedBSMs 0
scalar Scenario.node[28].appl generatedWSAs 0
scalar Scenario.node[28].appl receivedWSAs 0
scalar Scenario.node[28].nic.phy80211p busyTime 0.00010488888888889
scalar Scenario.node[28].nic.mac1609_4 ReceivedUnicastPackets 0
scalar Scenario.node[28].nic.mac1609_4 ReceivedBroadcasts 59
scalar Scenario.node[28].nic.mac1609_4 SentPackets 27
scalar Scenario.node[28].nic.mac1609_4 SentAcknowledgements 0
scalar Scenario.node[28].nic.mac1609_4 RetriesExceeded 0
scalar Scenario.node[28].nic.mac1609_4 SNIRLostPackets 0
scalar Scenario.node[28].nic.mac1609_4 RXTXLostPackets 0
scalar Scenario.node[28].nic.mac1609_4 TotalLostPackets 0
scalar Scenario.node[28].nic.mac1609_4 DroppedPacketsInMac 0
scalar Scenario.node[28].nic.mac1609_4 TooLittleTime 0
scalar Scenario.node[28].nic.mac1609_4 TimesIntoBackoff 27
scalar Scenario.node[28].nic.mac1609_4 SlotsBackoff 47
scalar Scenario.node[28].nic.mac1609_4 NumInternalContention 0
scalar Scenario.node[28].nic.mac1609_4 totalBusyTime 0.004155
scalar Scenario.node[28].nic.mac1609_4 retriesExceeded:count 0
attr source org_car2x_veins_modules_mac_sigRetriesExceeded
scalar Scenario.node[28].nic.mac1609_4 sentAcks:count 0
attr source org_car2x_veins_modules_mac_sigSentAck
scalar Scenario.node[28].nic.mac1609_4 sentPackets:count 27
attr source org_car2x_veins_modules_mac_sigSentPacket
scalar Scenario.node[28].nic.mac1609_4 collisions:count 0
attr source org_car2x_veins_modules_mac_sigCollision
scalar Scenario.node[28].nic.mac1609_4 channelBusy:timeavg 0.00015388888888889
attr source org_car2x_veins_modules_mac_sigChannelBusy
scalar Scenario.node[28].veinsmobility startTime 163
scalar Scenario.node[28].veinsmobility totalTime 26
scalar Scenario.node[28].veinsmobility stopTime 190
scalar Scenario.node[28].veinsmobility minSpeed 1.6573172523873
scalar Scenario.node[28].veinsmobility maxSpeed 14.325555397378
scalar Scenario.node[28].veinsmobility totalDistance 2649.3579676657
scalar Scenario.node[28].veinsmobility totalCO2Emission 94.913016300504
scalar Scenario.node[29].appl generatedWSMs 0
scalar Scenario.node[29].appl receivedWSMs 0
scalar Scenario.node[29].appl generatedBSMs 27
scalar Scenario.node[29].appl receivedBSMs 0
scalar Scenario.node[29].appl generatedWSAs 0
scalar Scenario.node[29].appl receivedWSAs 0
scalar Scenario.node[29].nic.phy80211p busyTime 0.00011377777777778
scalar Scenario.node[29].nic.mac1609_4 ReceivedUnicastPackets 0
scalar Scenario.node[29].nic.mac1609_4 ReceivedBroadcasts 63
scalar Scenario.node[29].nic.mac1609_4 SentPackets 27
scalar Scenario.node[29].nic.mac1609_4 SentAcknowledgements 0
scalar Scenario.node[29].nic.mac1609_4 RetriesExceeded 0
scalar Scenario.node[29].nic.mac1609_4 SNIRLostPackets 1
scalar Scenario.node[29].nic.mac1609_4 RXTXLostPackets 0
scalar Scenario.node[29].nic.mac1609_4 TotalLostPackets 1
scalar Scenario.node[29].nic.mac1609_4 DroppedPacketsInMac 0
scalar Scenario.node[29].nic.mac1609_4 TooLittleTime 0
scalar Scenario.node[29].nic.mac1609_4 TimesIntoBackoff 27
scalar Scenario.node[29].nic.mac1609_4 SlotsBackoff 34
scalar Scenario.node[29].nic.mac1609_4 NumInternalContention 0
scalar Scenario.node[29].nic.mac1609_4 totalBusyTime 0.004395
scalar Scenario.node[29].nic.mac1609_4 retriesExceeded:count 0
attr source org_car2x_veins_modules_mac_sigRetriesExceeded
scalar Scenario.node[29].nic.mac1609_4 sentAcks:count 0
attr source org_car2x_veins_modules_mac_sigSentAck
scalar Scenario.node[29].nic.mac1609_4 sentPackets:count 27
attr source org_car2x_veins_modules_mac_sigSentPacket
scalar Scenario.node[29].nic.mac1609_4 collisions:count 0
attr source org_car2x_veins_modules_mac_sigCollision
scalar Scenario.node[29].nic.mac1609_4 channelBusy:timeavg 0.00016277777777778
attr source org_car2x_veins_modules_mac_sigChannelBusy
scalar Scenario.node[29].veinsmobility startTime 166
scalar Scenario.node[29].veinsmobility totalTime 26
scalar Scenario.node[29].veinsmobility stopTime 193
scalar Scenario.node[29].veinsmobility minSpeed 2.1432108448353
scalar Scenario.node[29].veinsmobility maxSpeed 14.603502469076
scalar Scenario.node[29].veinsmobility totalDistance 2626.4114955616
scalar Scenario.node[29].veinsmobility totalCO2Emission 100.60787764129
scalar Scenario.node[27].appl generatedWSMs 0
scalar Scenario.node[27].appl receivedWSMs 0
scalar Scenario.node[27].appl generatedBSMs 37
scalar Scenario.node[27].appl receivedBSMs 0
scalar Scenario.node[27].appl generatedWSAs 0
scalar Scenario.node[27].appl receivedWSAs 0
scalar Scenario.node[27].nic.phy80211p busyTime 0.00010508108108108
scalar Scenario.node[27].nic.mac1609_4 ReceivedUnicastPackets 0
scalar Scenario.node[27].nic.mac1609_4 ReceivedBroadcasts 80
scalar Scenario.node[27].nic.mac1609_4 SentPackets 37
scalar Scenario.node[27].nic.mac1609_4 SentAcknowledgements 0
scalar Scenario.node[27].nic.mac1609_4 RetriesExceeded 0
scalar Scenario.node[27].nic.mac1609_4 SNIRLostPackets 1
scalar Scenario.node[27].nic.mac1609_4 RXTXLostPackets 0
scalar Scenario.node[27].nic.mac1609_4 TotalLostPackets 1
scalar Scenario.node[27].nic.mac1609_4 DroppedPacketsInMac 0
scalar Scenario.node[27].nic.mac1609_4 TooLittleTime 0
scalar Scenario.node[27].nic.mac1609_4 TimesIntoBackoff 37
scalar Scenario.node[27].nic.mac1609_4 SlotsBackoff 55
scalar Scenario.node[27].nic.mac1609_4 NumInternalContention 0
scalar Scenario.node[27].nic.mac1609_4 totalBusyTime 0.005701
scalar Scenario.node[27].nic.mac1609_4 retriesExceeded:count 0
attr source org_car2x_veins_modules_mac_sigRetriesExceeded
scalar Scenario.node[27].nic.mac1609_4 sentAcks:count 0
attr source org_car2x_veins_modules_mac_sigSentAck
scalar Scenario.node[27].nic.mac1609_4 sentPackets:count 37
attr source org_car2x_veins_modules_mac_sigSentPacket
scalar Scenario.node[27].nic.mac1609_4 collisions:count 0
attr source org_car2x_veins_modules_mac_sigCollision
scalar Scenario.node[27].nic.mac1609_4 channelBusy:timeavg 0.00015408108108108
attr source org_car2x_veins_modules_mac_sigChannelBusy
scalar Scenario.node[27].veinsmobility startTime 160
scalar Scenario.node[27].veinsmobility totalTime 36
scalar Scenario.node[27].veinsmobility stopTime 197
scalar Scenario.node[27].veinsmobility minSpeed 0
scalar Scenario.node[27].veinsmobility maxSpeed 14.104005251405
scalar Scenario.node[27].veinsmobility totalDistance 2721.6774340776
scalar Scenario.node[27].veinsmobility totalCO2Emission 110.23896486328
scalar Scenario.node[30].appl generatedWSMs 0
scalar Scenario.node[30].appl receivedWSMs 0
scalar Scenario.node[30].appl generatedBSMs 31
scalar Scenario.node[30].appl receivedBSMs 0
scalar Scenario.node[30].appl generatedWSAs 0
scalar Scenario.node[30].appl receivedWSAs 0
scalar Scenario.node[30].nic.phy80211p busyTime 0.00010529032258065
scalar Scenario.node[30].nic.mac1609_4 ReceivedUnicastPackets 0
scalar Scenario.node[30].nic.mac1609_4 ReceivedBroadcasts 67
scalar Scenario.node[30].nic.mac1609_4 SentPackets 31
scalar Scenario.node[30].nic.mac1609_4 SentAcknowledgements 0
scalar Scenario.node[30].nic.mac1609_4 RetriesExceeded 0
scalar Scenario.node[30].nic.mac1609_4 SNIRLostPackets 1
scalar Scenario.node[30].nic.mac1609_4 RXTXLostPackets 0
scalar Scenario.node[30].nic.mac1609_4 TotalLostPackets 1
scalar Scenario.node[30].nic.mac1609_4 DroppedPacketsInMac 0
scalar Scenario.node[30].nic.mac1609_4 TooLittleTime 0
scalar Scenario.node[30].nic.mac1609_4 TimesIntoBackoff 31
scalar Scenario.node[30].nic.mac1609_4 SlotsBackoff 45
scalar Scenario.node[30].nic.mac1609_4 NumInternalContention 0
scalar Scenario.node[30].nic.mac1609_4 totalBusyTime 0.004783
scalar Scenario.node[30].nic.mac1609_4 retriesExceeded:count 0
attr source org_car2x_veins_modules_mac_sigRetriesExceeded
scalar Scenario.node[30].nic.mac1609_4 sentAcks:count 0
attr source org_car2x_veins_modules_mac_sigSentAck
scalar Scenario.node[30].nic.mac1609_4 sentPackets:count 31
attr source org_car2x_veins_modules_mac_sigSentPacket
scalar Scenario.node[30].nic.mac1609_4 collisions:count 0
attr source org_car2x_veins_modules_mac_sigCollision
scalar Scenario.node[30].nic.mac1609_4 channelBusy:timeavg 0.00015429032258065
attr source org_car2x_veins_modules_mac_sigChannelBusy
scalar Scenario.node[30].veinsmobility startTime 167
scalar Scenario.node[30].veinsmobility totalTime 30
scalar Scenario.node[30].veinsmobility stopTime 198
scalar Scenario.node[30].veinsmobility minSpeed 0.0039800744641315
scalar Scenario.node[30].veinsmobility maxSpeed 15.57522101985
scalar Scenario.node[30].veinsmobility totalDistance 2624.4353199398
scalar Scenario.node[30].veinsmobility totalCO2Emission 108.62475222256
scalar Scenario.node[31].appl generatedWSMs 0
scalar Scenario.node[31].appl receivedWSMs 0
scalar Scenario.node[31].appl generatedBSMs 28
scalar Scenario.node[31].appl receivedBSMs 0
scalar Scenario.node[31].appl generatedWSAs 0
scalar Scenario.node[31].appl receivedWSAs 0
scalar Scenario.node[31].nic.phy80211p busyTime 0.00010628571428571
scalar Scenario.node[31].nic.mac1609_4 ReceivedUnicastPackets 0
scalar Scenario.node[31].nic.mac1609_4 ReceivedBroadcasts 62
scalar Scenario.node[31].nic.mac1609_4 SentPackets 28
scalar Scenario.node[31].nic.mac1609_4 SentAcknowledgements 0
scalar Scenario.node[31].nic.mac1609_4 RetriesExceeded 0
scalar Scenario.node[31].nic.mac1609_4 SNIRLostPackets 0
scalar Scenario.node[31].nic.mac1609_4 RXTXLostPackets 0
scalar Scenario.node[31].nic.mac1609_4 TotalLostPackets 0
scalar Scenario.node[31].nic.mac1609_4 DroppedPacketsInMac 0
scalar Scenario.node[31].nic.mac1609_4 TooLittleTime 0
scalar Scenario.node[31].nic.mac1609_4 TimesIntoBackoff 28
scalar Scenario.node[31].nic.mac1609_4 SlotsBackoff 45
scalar Scenario.node[31].nic.mac1609_4 NumInternalContention 0
scalar Scenario.node[31].nic.mac1609_4 totalBusyTime 0.004348
scalar Scenario.node[31].nic.mac1609_4 retriesExceeded:count 0
attr source org_car2x_veins_modules_mac_sigRetriesExceeded
scalar Scenario.node[31].nic.mac1609_4 sentAcks:count 0
attr source org_car2x_veins_modules_mac_sigSentAck
scalar Scenario.node[31].nic.mac1609_4 sentPackets:count 28
attr source org_car2x_veins_modules_mac_sigSentPacket
scalar Scenario.node[31].nic.mac1609_4 collisions:count 0
attr source org_car2x_veins_modules_mac_sigCollision
scalar Scenario.node[31].nic.mac1609_4 channelBusy:timeavg 0.00015528571428571
attr source org_car2x_veins_modules_mac_sigChannelBusy
scalar Scenario.node[31].veinsmobility startTime 172
scalar Scenario.node[31].veinsmobility totalTime 27
scalar Scenario.node[31].veinsmobility stopTime 200
scalar Scenario.node[31].veinsmobility minSpeed 2.3674263509689
scalar Scenario.node[31].veinsmobility maxSpeed 15.861580743705
scalar Scenario.node[31].veinsmobility totalDistance 2676.4638541643
scalar Scenario.node[31].veinsmobility totalCO2Emission 109.14443577158
scalar Scenario.node[32].appl generatedWSMs 0
scalar Scenario.node[32].appl receivedWSMs 0
scalar Scenario.node[32].appl generatedBSMs 30
scalar Scenario.node[32].appl receivedBSMs 0
scalar Scenario.node[32].appl generatedWSAs 0
scalar Scenario.node[32].appl receivedWSAs 0
scalar Scenario.node[32].nic.phy80211p busyTime 7.52e-05
scalar Scenario.node[32].nic.mac1609_4 ReceivedUnicastPackets 0
scalar Scenario.node[32].nic.mac1609_4 ReceivedBroadcasts 47
scalar Scenario.node[32].nic.mac1609_4 SentPackets 30
scalar Scenario.node[32].nic.mac1609_4 SentAcknowledgements 0
scalar Scenario.node[32].nic.mac1609_4 RetriesExceeded 0
scalar Scenario.node[32].nic.mac1609_4 SNIRLostPackets 0
scalar Scenario.node[32].nic.mac1609_4 RXTXLostPackets 0
scalar Scenario.node[32].nic.mac1609_4 TotalLostPackets 0
scalar Scenario.node[32].nic.mac1609_4 DroppedPacketsInMac 0
scalar Scenario.node[32].nic.mac1609_4 TooLittleTime 0
scalar Scenario.node[32].nic.mac1609_4 TimesIntoBackoff 30
scalar Scenario.node[32].nic.mac1609_4 SlotsBackoff 44
scalar Scenario.node[32].nic.mac1609_4 NumInternalContention 0
scalar Scenario.node[32].nic.mac1609_4 totalBusyTime 0.003726
scalar Scenario.node[32].nic.mac1609_4 retriesExceeded:count 0
attr source org_car2x_veins_modules_mac_sigRetriesExceeded
scalar Scenario.node[32].nic.mac1609_4 sentAcks:count 0
attr source org_car2x_veins_modules_mac_sigSentAck
scalar Scenario.node[32].nic.mac1609_4 sentPackets:count 30
attr source org_car2x_veins_modules_mac_sigSentPacket
scalar Scenario.node[32].nic.mac1609_4 collisions:count 0
attr source org_car2x_veins_modules_mac_sigCollision
scalar Scenario.node[32].nic.mac1609_4 channelBusy:timeavg 0.0001242
attr source org_car2x_veins_modules_mac_sigChannelBusy
scalar Scenario.node[32].veinsmobility startTime 175
scalar Scenario.node[32].veinsmobility totalTime 29
scalar Scenario.node[32].veinsmobility stopTime 205
scalar Scenario.node[32].veinsmobility minSpeed 2.461056548031
scalar Scenario.node[32].veinsmobility maxSpeed 11.496224429124
scalar Scenario.node[32].veinsmobility totalDistance 2661.3964827177
scalar Scenario.node[32].veinsmobility totalCO2Emission 76.78474866356
scalar Scenario.node[34].appl generatedWSMs 0
scalar Scenario.node[34].appl receivedWSMs 0
scalar Scenario.node[34].appl generatedBSMs 27
scalar Scenario.node[34].appl receivedBSMs 0
scalar Scenario.node[34].appl generatedWSAs 0
scalar Scenario.node[34].appl receivedWSAs 0
scalar Scenario.node[34].nic.phy80211p busyTime 3.3777777777778e-05
scalar Scenario.node[34].nic.mac1609_4 ReceivedUnicastPackets 0
scalar Scenario.node[34].nic.mac1609_4 ReceivedBroadcasts 17
scalar Scenario.node[34].nic.mac1609_4 SentPackets 27
scalar Scenario.node[34].nic.mac1609_4 SentAcknowledgements 0
scalar Scenario.node[34].nic.mac1609_4 RetriesExceeded 0
scalar Scenario.node[34].nic.mac1609_4 SNIRLostPackets 2
scalar Scenario.node[34].nic.mac1609_4 RXTXLostPackets 0
scalar Scenario.node[34].nic.mac1609_4 TotalLostPackets 2
scalar Scenario.node[34].nic.mac1609_4 DroppedPacketsInMac 0
scalar Scenario.node[34].nic.mac1609_4 TooLittleTime 0
scalar Scenario.node[34].nic.mac1609_4 TimesIntoBackoff 27
scalar Scenario.node[34].nic.mac1609_4 SlotsBackoff 41
scalar Scenario.node[34].nic.mac1609_4 NumInternalContention 0
scalar Scenario.node[34].nic.mac1609_4 totalBusyTime 0.002235
scalar Scenario.node[34].nic.mac1609_4 retriesExceeded:count 0
attr source org_car2x_veins_modules_mac_sigRetriesExceeded
scalar Scenario.node[34].nic.mac1609_4 sentAcks:count 0
attr source org_car2x_veins_modules_mac_sigSentAck
scalar Scenario.node[34].nic.mac1609_4 sentPackets:count 27
attr source org_car2x_veins_modules_mac_sigSentPacket
scalar Scenario.node[34].nic.mac1609_4 collisions:count 0
attr source org_car2x_veins_modules_mac_sigCollision
scalar Scenario.node[34].nic.mac1609_4 channelBusy:timeavg 8.2777777777778e-05
attr source org_car2x_veins_modules_mac_sigChannelBusy
scalar Scenario.node[34].veinsmobility startTime 182
scalar Scenario.node[34].veinsmobility totalTime 26
scalar Scenario.node[34].veinsmobility stopTime 209
scalar Scenario.node[34].veinsmobility minSpeed 1.9579130975995
scalar Scenario.node[34].veinsmobility maxSpeed 14.163177596378
scalar Scenario.node[34].veinsmobility totalDistance 2616.3904638035
scalar Scenario.node[34].veinsmobility totalCO2Emission 92.772666713548
scalar Scenario.node[33].appl generatedWSMs 0
scalar Scenario.node[33].appl receivedWSMs 0
scalar Scenario.node[33].appl generatedBSMs 34
scalar Scenario.node[33].appl receivedBSMs 0
scalar Scenario.node[33].appl generatedWSAs 0
scalar Scenario.node[33].appl receivedWSAs 0
scalar Scenario.node[33].nic.phy80211p busyTime 3.2470588235294e-05
scalar Scenario.node[33].nic.mac1609_4 ReceivedUnicastPackets 0
scalar Scenario.node[33].nic.mac1609_4 ReceivedBroadcasts 21
scalar Scenario.node[33].nic.mac1609_4 SentPackets 34
scalar Scenario.node[33].nic.mac1609_4 SentAcknowledgements 0
scalar Scenario.node[33].nic.mac1609_4 RetriesExceeded 0
scalar Scenario.node[33].nic.mac1609_4 SNIRLostPackets 2
scalar Scenario.node[33].nic.mac1609_4 RXTXLostPackets 0
scalar Scenario.node[33].nic.mac1609_4 TotalLostPackets 2
scalar Scenario.node[33].nic.mac1609_4 DroppedPacketsInMac 0
scalar Scenario.node[33].nic.mac1609_4 TooLittleTime 0
scalar Scenario.node[33].nic.mac1609_4 TimesIntoBackoff 34
scalar Scenario.node[33].nic.mac1609_4 SlotsBackoff 55
scalar Scenario.node[33].nic.mac1609_4 NumInternalContention 0
scalar Scenario.node[33].nic.mac1609_4 totalBusyTime 0.00277
scalar Scenario.node[33].nic.mac1609_4 retriesExceeded:count 0
attr source org_car2x_veins_modules_mac_sigRetriesExceeded
scalar Scenario.node[33].nic.mac1609_4 sentAcks:count 0
attr source org_car2x_veins_modules_mac_sigSentAck
scalar Scenario.node[33].nic.mac1609_4 sentPackets:count 34
attr source org_car2x_veins_modules_mac_sigSentPacket
scalar Scenario.node[33].nic.mac1609_4 collisions:count 0
attr source org_car2x_veins_modules_mac_sigCollision
scalar Scenario.node[33].nic.mac1609_4 channelBusy:timeavg 8.1470588235294e-05
attr source org_car2x_veins_modules_mac_sigChannelBusy
scalar Scenario.node[33].veinsmobility startTime 180
scalar Scenario.node[33].veinsmobility totalTime 33
scalar Scenario.node[33].veinsmobility stopTime 214
scalar Scenario.node[33].veinsmobility minSpeed 0.024720239940906
scalar Scenario.node[33].veinsmobility maxSpeed 13.529113454113
scalar Scenario.node[33].veinsmobility totalDistance 2708.526506753
scalar Scenario.node[33].veinsmobility totalCO2Emission 101.48743760364
scalar Scenario.node[35].appl generatedWSMs 0
scalar Scenario.node[35].appl receivedWSMs 0
scalar Scenario.node[35].appl generatedBSMs 25
scalar Scenario.node[35].appl receivedBSMs 0
scalar Scenario.node[35].appl generatedWSAs 0
scalar Scenario.node[35].appl receivedWSAs 0
scalar Scenario.node[35].nic.phy80211p busyTime 4.992e-05
scalar Scenario.node[35].nic.mac1609_4 ReceivedUnicastPackets 0
scalar Scenario.node[35].nic.mac1609_4 ReceivedBroadcasts 25
scalar Scenario.node[35].nic.mac1609_4 SentPackets 25
scalar Scenario.node[35].nic.mac1609_4 SentAcknowledgements 0
scalar Scenario.node[35].nic.mac1609_4 RetriesExceeded 0
scalar Scenario.node[35].nic.mac1609_4 SNIRLostPackets 1
scalar Scenario.node[35].nic.mac1609_4 RXTXLostPackets 0
scalar Scenario.node[35].nic.mac1609_4 TotalLostPackets 1
scalar Scenario.node[35].nic.mac1609_4 DroppedPacketsInMac 0
scalar Scenario.node[35].nic.mac1609_4 TooLittleTime 0
scalar Scenario.node[35].nic.mac1609_4 TimesIntoBackoff 25
scalar Scenario.node[35].nic.mac1609_4 SlotsBackoff 39
scalar Scenario.node[35].nic.mac1609_4 NumInternalContention 0
scalar Scenario.node[35].nic.mac1609_4 totalBusyTime 0.002473
scalar Scenario.node[35].nic.mac1609_4 retriesExceeded:count 0
attr source org_car2x_veins_modules_mac_sigRetriesExceeded
scalar Scenario.node[35].nic.mac1609_4 sentAcks:count 0
attr source org_car2x_veins_modules_mac_sigSentAck
scalar Scenario.node[35].nic.mac1609_4 sentPackets:count 25
attr source org_car2x_veins_modules_mac_sigSentPacket
scalar Scenario.node[35].nic.mac1609_4 collisions:count 0
attr source org_car2x_veins_modules_mac_sigCollision
scalar Scenario.node[35].nic.mac1609_4 channelBusy:timeavg 9.892e-05
attr source org_car2x_veins_modules_mac_sigChannelBusy
scalar Scenario.node[35].veinsmobility startTime 198
scalar Scenario.node[35].veinsmobility totalTime 24
scalar Scenario.node[35].veinsmobility stopTime 223
scalar Scenario.node[35].veinsmobility minSpeed 2.0416941094212
scalar Scenario.node[35].veinsmobility maxSpeed 15.708838865779
scalar Scenario.node[35].veinsmobility totalDistance 2684.0457805373
scalar Scenario.node[35].veinsmobility totalCO2Emission 100.34690228816
scalar Scenario.node[37].appl generatedWSMs 0
scalar Scenario.node[37].appl receivedWSMs 0
scalar Scenario.node[37].appl generatedBSMs 28
scalar Scenario.node[37].appl receivedBSMs 0
scalar Scenario.node[37].appl generatedWSAs 0
scalar Scenario.node[37].appl receivedWSAs 0
[...]
scalar Scenario.node[204].veinsmobility totalCO2Emission 101.44829855206
scalar Scenario.node[205].appl generatedWSMs 0
scalar Scenario.node[205].appl receivedWSMs 0
scalar Scenario.node[205].appl generatedBSMs 32
scalar Scenario.node[205].appl receivedBSMs 0
scalar Scenario.node[205].appl generatedWSAs 0
scalar Scenario.node[205].appl receivedWSAs 0
scalar Scenario.node[205].nic.phy80211p busyTime 0.0001155
scalar Scenario.node[205].nic.mac1609_4 ReceivedUnicastPackets 0
scalar Scenario.node[205].nic.mac1609_4 ReceivedBroadcasts 77
scalar Scenario.node[205].nic.mac1609_4 SentPackets 32
scalar Scenario.node[205].nic.mac1609_4 SentAcknowledgements 0
scalar Scenario.node[205].nic.mac1609_4 RetriesExceeded 0
scalar Scenario.node[205].nic.mac1609_4 SNIRLostPackets 0
scalar Scenario.node[205].nic.mac1609_4 RXTXLostPackets 0
scalar Scenario.node[205].nic.mac1609_4 TotalLostPackets 0
scalar Scenario.node[205].nic.mac1609_4 DroppedPacketsInMac 0
scalar Scenario.node[205].nic.mac1609_4 TooLittleTime 0
scalar Scenario.node[205].nic.mac1609_4 TimesIntoBackoff 32
scalar Scenario.node[205].nic.mac1609_4 SlotsBackoff 46
scalar Scenario.node[205].nic.mac1609_4 NumInternalContention 0
scalar Scenario.node[205].nic.mac1609_4 totalBusyTime 0.005264
scalar Scenario.node[205].nic.mac1609_4 retriesExceeded:count 0
attr source org_car2x_veins_modules_mac_sigRetriesExceeded
scalar Scenario.node[205].nic.mac1609_4 sentAcks:count 0
attr source org_car2x_veins_modules_mac_sigSentAck
scalar Scenario.node[205].nic.mac1609_4 sentPackets:count 32
attr source org_car2x_veins_modules_mac_sigSentPacket
scalar Scenario.node[205].nic.mac1609_4 collisions:count 0
attr source org_car2x_veins_modules_mac_sigCollision
scalar Scenario.node[205].nic.mac1609_4 channelBusy:timeavg 0.0001645
attr source org_car2x_veins_modules_mac_sigChannelBusy
scalar Scenario.node[205].veinsmobility startTime 1005
scalar Scenario.node[205].veinsmobility totalTime 31
scalar Scenario.node[205].veinsmobility stopTime 1037
scalar Scenario.node[205].veinsmobility minSpeed 1.5117104863282
scalar Scenario.node[205].veinsmobility maxSpeed 13.412647415373
scalar Scenario.node[205].veinsmobility totalDistance 2671.0895272405
scalar Scenario.node[205].veinsmobility totalCO2Emission 91.758212415813
scalar Scenario.node[207].appl generatedWSMs 0
scalar Scenario.node[207].appl receivedWSMs 0
scalar Scenario.node[207].appl generatedBSMs 27
scalar Scenario.node[207].appl receivedBSMs 0
scalar Scenario.node[207].appl generatedWSAs 0
scalar Scenario.node[207].appl receivedWSAs 0
scalar Scenario.node[207].nic.phy80211p busyTime 9.0666666666667e-05
scalar Scenario.node[207].nic.mac1609_4 ReceivedUnicastPackets 0
scalar Scenario.node[207].nic.mac1609_4 ReceivedBroadcasts 49
scalar Scenario.node[207].nic.mac1609_4 SentPackets 27
scalar Scenario.node[207].nic.mac1609_4 SentAcknowledgements 0
scalar Scenario.node[207].nic.mac1609_4 RetriesExceeded 0
scalar Scenario.node[207].nic.mac1609_4 SNIRLostPackets 2
scalar Scenario.node[207].nic.mac1609_4 RXTXLostPackets 0
scalar Scenario.node[207].nic.mac1609_4 TotalLostPackets 2
scalar Scenario.node[207].nic.mac1609_4 DroppedPacketsInMac 0
scalar Scenario.node[207].nic.mac1609_4 TooLittleTime 0
scalar Scenario.node[207].nic.mac1609_4 TimesIntoBackoff 27
scalar Scenario.node[207].nic.mac1609_4 SlotsBackoff 45
scalar Scenario.node[207].nic.mac1609_4 NumInternalContention 0
scalar Scenario.node[207].nic.mac1609_4 totalBusyTime 0.003771
scalar Scenario.node[207].nic.mac1609_4 retriesExceeded:count 0
attr source org_car2x_veins_modules_mac_sigRetriesExceeded
scalar Scenario.node[207].nic.mac1609_4 sentAcks:count 0
attr source org_car2x_veins_modules_mac_sigSentAck
scalar Scenario.node[207].nic.mac1609_4 sentPackets:count 27
attr source org_car2x_veins_modules_mac_sigSentPacket
scalar Scenario.node[207].nic.mac1609_4 collisions:count 0
attr source org_car2x_veins_modules_mac_sigCollision
scalar Scenario.node[207].nic.mac1609_4 channelBusy:timeavg 0.00013966666666667
attr source org_car2x_veins_modules_mac_sigChannelBusy
scalar Scenario.node[207].veinsmobility startTime 1014
scalar Scenario.node[207].veinsmobility totalTime 26
scalar Scenario.node[207].veinsmobility stopTime 1041
scalar Scenario.node[207].veinsmobility minSpeed 2.1913159304764
scalar Scenario.node[207].veinsmobility maxSpeed 13.994675363703
scalar Scenario.node[207].veinsmobility totalDistance 2625.5951127771
scalar Scenario.node[207].veinsmobility totalCO2Emission 90.592818349987
scalar Scenario.node[209].appl generatedWSMs 0
scalar Scenario.node[209].appl receivedWSMs 0
scalar Scenario.node[209].appl generatedBSMs 28
scalar Scenario.node[209].appl receivedBSMs 0
scalar Scenario.node[209].appl generatedWSAs 0
scalar Scenario.node[209].appl receivedWSAs 0
scalar Scenario.node[209].nic.phy80211p busyTime 9.2571428571429e-05
scalar Scenario.node[209].nic.mac1609_4 ReceivedUnicastPackets 0
scalar Scenario.node[209].nic.mac1609_4 ReceivedBroadcasts 50
scalar Scenario.node[209].nic.mac1609_4 SentPackets 28
scalar Scenario.node[209].nic.mac1609_4 SentAcknowledgements 0
scalar Scenario.node[209].nic.mac1609_4 RetriesExceeded 0
scalar Scenario.node[209].nic.mac1609_4 SNIRLostPackets 4
scalar Scenario.node[209].nic.mac1609_4 RXTXLostPackets 0
scalar Scenario.node[209].nic.mac1609_4 TotalLostPackets 4
scalar Scenario.node[209].nic.mac1609_4 DroppedPacketsInMac 0
scalar Scenario.node[209].nic.mac1609_4 TooLittleTime 0
scalar Scenario.node[209].nic.mac1609_4 TimesIntoBackoff 28
scalar Scenario.node[209].nic.mac1609_4 SlotsBackoff 36
scalar Scenario.node[209].nic.mac1609_4 NumInternalContention 0
scalar Scenario.node[209].nic.mac1609_4 totalBusyTime 0.003964
scalar Scenario.node[209].nic.mac1609_4 retriesExceeded:count 0
attr source org_car2x_veins_modules_mac_sigRetriesExceeded
scalar Scenario.node[209].nic.mac1609_4 sentAcks:count 0
attr source org_car2x_veins_modules_mac_sigSentAck
scalar Scenario.node[209].nic.mac1609_4 sentPackets:count 28
attr source org_car2x_veins_modules_mac_sigSentPacket
scalar Scenario.node[209].nic.mac1609_4 collisions:count 0
attr source org_car2x_veins_modules_mac_sigCollision
scalar Scenario.node[209].nic.mac1609_4 channelBusy:timeavg 0.00014157142857143
attr source org_car2x_veins_modules_mac_sigChannelBusy
scalar Scenario.node[209].veinsmobility startTime 1017
scalar Scenario.node[209].veinsmobility totalTime 27
scalar Scenario.node[209].veinsmobility stopTime 1045
scalar Scenario.node[209].veinsmobility minSpeed 1.6106865214417
scalar Scenario.node[209].veinsmobility maxSpeed 12.313335425481
scalar Scenario.node[209].veinsmobility totalDistance 2646.2661418339
scalar Scenario.node[209].veinsmobility totalCO2Emission 80.29121841654
scalar Scenario.node[206].appl generatedWSMs 0
scalar Scenario.node[206].appl receivedWSMs 0
scalar Scenario.node[206].appl generatedBSMs 39
scalar Scenario.node[206].appl receivedBSMs 0
scalar Scenario.node[206].appl generatedWSAs 0
scalar Scenario.node[206].appl receivedWSAs 0
scalar Scenario.node[206].nic.phy80211p busyTime 0.00011076923076923
scalar Scenario.node[206].nic.mac1609_4 ReceivedUnicastPackets 0
scalar Scenario.node[206].nic.mac1609_4 ReceivedBroadcasts 89
scalar Scenario.node[206].nic.mac1609_4 SentPackets 39
scalar Scenario.node[206].nic.mac1609_4 SentAcknowledgements 0
scalar Scenario.node[206].nic.mac1609_4 RetriesExceeded 0
scalar Scenario.node[206].nic.mac1609_4 SNIRLostPackets 1
scalar Scenario.node[206].nic.mac1609_4 RXTXLostPackets 0
scalar Scenario.node[206].nic.mac1609_4 TotalLostPackets 1
scalar Scenario.node[206].nic.mac1609_4 DroppedPacketsInMac 0
scalar Scenario.node[206].nic.mac1609_4 TooLittleTime 0
scalar Scenario.node[206].nic.mac1609_4 TimesIntoBackoff 39
scalar Scenario.node[206].nic.mac1609_4 SlotsBackoff 55
scalar Scenario.node[206].nic.mac1609_4 NumInternalContention 0
scalar Scenario.node[206].nic.mac1609_4 totalBusyTime 0.006231
scalar Scenario.node[206].nic.mac1609_4 retriesExceeded:count 0
attr source org_car2x_veins_modules_mac_sigRetriesExceeded
scalar Scenario.node[206].nic.mac1609_4 sentAcks:count 0
attr source org_car2x_veins_modules_mac_sigSentAck
scalar Scenario.node[206].nic.mac1609_4 sentPackets:count 39
attr source org_car2x_veins_modules_mac_sigSentPacket
scalar Scenario.node[206].nic.mac1609_4 collisions:count 0
attr source org_car2x_veins_modules_mac_sigCollision
scalar Scenario.node[206].nic.mac1609_4 channelBusy:timeavg 0.00015976923076923
attr source org_car2x_veins_modules_mac_sigChannelBusy
scalar Scenario.node[206].veinsmobility startTime 1008
scalar Scenario.node[206].veinsmobility totalTime 38
scalar Scenario.node[206].veinsmobility stopTime 1047
scalar Scenario.node[206].veinsmobility minSpeed 0.00067855901655249
scalar Scenario.node[206].veinsmobility maxSpeed 14.210787952366
scalar Scenario.node[206].veinsmobility totalDistance 2678.6918845228
scalar Scenario.node[206].veinsmobility totalCO2Emission 114.76246600485
scalar Scenario.node[208].appl generatedWSMs 0
scalar Scenario.node[208].appl receivedWSMs 0
scalar Scenario.node[208].appl generatedBSMs 35
scalar Scenario.node[208].appl receivedBSMs 0
scalar Scenario.node[208].appl generatedWSAs 0
scalar Scenario.node[208].appl receivedWSAs 0
scalar Scenario.node[208].nic.phy80211p busyTime 6.9942857142857e-05
scalar Scenario.node[208].nic.mac1609_4 ReceivedUnicastPackets 0
scalar Scenario.node[208].nic.mac1609_4 ReceivedBroadcasts 46
scalar Scenario.node[208].nic.mac1609_4 SentPackets 35
scalar Scenario.node[208].nic.mac1609_4 SentAcknowledgements 0
scalar Scenario.node[208].nic.mac1609_4 RetriesExceeded 0
scalar Scenario.node[208].nic.mac1609_4 SNIRLostPackets 5
scalar Scenario.node[208].nic.mac1609_4 RXTXLostPackets 0
scalar Scenario.node[208].nic.mac1609_4 TotalLostPackets 5
scalar Scenario.node[208].nic.mac1609_4 DroppedPacketsInMac 0
scalar Scenario.node[208].nic.mac1609_4 TooLittleTime 0
scalar Scenario.node[208].nic.mac1609_4 TimesIntoBackoff 35
scalar Scenario.node[208].nic.mac1609_4 SlotsBackoff 62
scalar Scenario.node[208].nic.mac1609_4 NumInternalContention 0
scalar Scenario.node[208].nic.mac1609_4 totalBusyTime 0.004163
scalar Scenario.node[208].nic.mac1609_4 retriesExceeded:count 0
attr source org_car2x_veins_modules_mac_sigRetriesExceeded
scalar Scenario.node[208].nic.mac1609_4 sentAcks:count 0
attr source org_car2x_veins_modules_mac_sigSentAck
scalar Scenario.node[208].nic.mac1609_4 sentPackets:count 35
attr source org_car2x_veins_modules_mac_sigSentPacket
scalar Scenario.node[208].nic.mac1609_4 collisions:count 0
attr source org_car2x_veins_modules_mac_sigCollision
scalar Scenario.node[208].nic.mac1609_4 channelBusy:timeavg 0.00011894285714286
attr source org_car2x_veins_modules_mac_sigChannelBusy
scalar Scenario.node[208].veinsmobility startTime 1015
scalar Scenario.node[208].veinsmobility totalTime 34
scalar Scenario.node[208].veinsmobility stopTime 1050
scalar Scenario.node[208].veinsmobility minSpeed 0.003909605016925
scalar Scenario.node[208].veinsmobility maxSpeed 12.464708298672
scalar Scenario.node[208].veinsmobility totalDistance 2655.8238928924
scalar Scenario.node[208].veinsmobility totalCO2Emission 97.489684693985
scalar Scenario.node[211].appl generatedWSMs 0
scalar Scenario.node[211].appl receivedWSMs 0
scalar Scenario.node[211].appl generatedBSMs 25
scalar Scenario.node[211].appl receivedBSMs 0
scalar Scenario.node[211].appl generatedWSAs 0
scalar Scenario.node[211].appl receivedWSAs 0
scalar Scenario.node[211].nic.phy80211p busyTime 3.072e-05
scalar Scenario.node[211].nic.mac1609_4 ReceivedUnicastPackets 0
scalar Scenario.node[211].nic.mac1609_4 ReceivedBroadcasts 15
scalar Scenario.node[211].nic.mac1609_4 SentPackets 25
scalar Scenario.node[211].nic.mac1609_4 SentAcknowledgements 0
scalar Scenario.node[211].nic.mac1609_4 RetriesExceeded 0
scalar Scenario.node[211].nic.mac1609_4 SNIRLostPackets 1
scalar Scenario.node[211].nic.mac1609_4 RXTXLostPackets 0
scalar Scenario.node[211].nic.mac1609_4 TotalLostPackets 1
scalar Scenario.node[211].nic.mac1609_4 DroppedPacketsInMac 0
scalar Scenario.node[211].nic.mac1609_4 TooLittleTime 0
scalar Scenario.node[211].nic.mac1609_4 TimesIntoBackoff 25
scalar Scenario.node[211].nic.mac1609_4 SlotsBackoff 35
scalar Scenario.node[211].nic.mac1609_4 NumInternalContention 0
scalar Scenario.node[211].nic.mac1609_4 totalBusyTime 0.001993
scalar Scenario.node[211].nic.mac1609_4 retriesExceeded:count 0
attr source org_car2x_veins_modules_mac_sigRetriesExceeded
scalar Scenario.node[211].nic.mac1609_4 sentAcks:count 0
attr source org_car2x_veins_modules_mac_sigSentAck
scalar Scenario.node[211].nic.mac1609_4 sentPackets:count 25
attr source org_car2x_veins_modules_mac_sigSentPacket
scalar Scenario.node[211].nic.mac1609_4 collisions:count 0
attr source org_car2x_veins_modules_mac_sigCollision
scalar Scenario.node[211].nic.mac1609_4 channelBusy:timeavg 7.972e-05
attr source org_car2x_veins_modules_mac_sigChannelBusy
scalar Scenario.node[211].veinsmobility startTime 1032
scalar Scenario.node[211].veinsmobility totalTime 24
scalar Scenario.node[211].veinsmobility stopTime 1057
scalar Scenario.node[211].veinsmobility minSpeed 2.5597580570728
scalar Scenario.node[211].veinsmobility maxSpeed 14.452215646396
scalar Scenario.node[211].veinsmobility totalDistance 2625.9932907275
scalar Scenario.node[211].veinsmobility totalCO2Emission 89.456709169354
scalar Scenario.node[210].appl generatedWSMs 0
scalar Scenario.node[210].appl receivedWSMs 0
scalar Scenario.node[210].appl generatedBSMs 28
scalar Scenario.node[210].appl receivedBSMs 0
scalar Scenario.node[210].appl generatedWSAs 0
scalar Scenario.node[210].appl receivedWSAs 0
scalar Scenario.node[210].nic.phy80211p busyTime 2.7428571428571e-05
scalar Scenario.node[210].nic.mac1609_4 ReceivedUnicastPackets 0
scalar Scenario.node[210].nic.mac1609_4 ReceivedBroadcasts 15
scalar Scenario.node[210].nic.mac1609_4 SentPackets 28
scalar Scenario.node[210].nic.mac1609_4 SentAcknowledgements 0
scalar Scenario.node[210].nic.mac1609_4 RetriesExceeded 0
scalar Scenario.node[210].nic.mac1609_4 SNIRLostPackets 1
scalar Scenario.node[210].nic.mac1609_4 RXTXLostPackets 0
scalar Scenario.node[210].nic.mac1609_4 TotalLostPackets 1
scalar Scenario.node[210].nic.mac1609_4 DroppedPacketsInMac 0
scalar Scenario.node[210].nic.mac1609_4 TooLittleTime 0
scalar Scenario.node[210].nic.mac1609_4 TimesIntoBackoff 28
scalar Scenario.node[210].nic.mac1609_4 SlotsBackoff 48
scalar Scenario.node[210].nic.mac1609_4 NumInternalContention 0
scalar Scenario.node[210].nic.mac1609_4 totalBusyTime 0.00214
scalar Scenario.node[210].nic.mac1609_4 retriesExceeded:count 0
attr source org_car2x_veins_modules_mac_sigRetriesExceeded
scalar Scenario.node[210].nic.mac1609_4 sentAcks:count 0
attr source org_car2x_veins_modules_mac_sigSentAck
scalar Scenario.node[210].nic.mac1609_4 sentPackets:count 28
attr source org_car2x_veins_modules_mac_sigSentPacket
scalar Scenario.node[210].nic.mac1609_4 collisions:count 0
attr source org_car2x_veins_modules_mac_sigCollision
scalar Scenario.node[210].nic.mac1609_4 channelBusy:timeavg 7.6428571428571e-05
attr source org_car2x_veins_modules_mac_sigChannelBusy
scalar Scenario.node[210].veinsmobility startTime 1032
scalar Scenario.node[210].veinsmobility totalTime 27
scalar Scenario.node[210].veinsmobility stopTime 1060
scalar Scenario.node[210].veinsmobility minSpeed 1.6171090909513
scalar Scenario.node[210].veinsmobility maxSpeed 13.353675801985
scalar Scenario.node[210].veinsmobility totalDistance 2660.1670929186
scalar Scenario.node[210].veinsmobility totalCO2Emission 90.367366554444
scalar Scenario.node[212].appl generatedWSMs 0
scalar Scenario.node[212].appl receivedWSMs 0
scalar Scenario.node[212].appl generatedBSMs 29
scalar Scenario.node[212].appl receivedBSMs 0
scalar Scenario.node[212].appl generatedWSAs 0
scalar Scenario.node[212].appl receivedWSAs 0
scalar Scenario.node[212].nic.phy80211p busyTime 2.3172413793103e-05
scalar Scenario.node[212].nic.mac1609_4 ReceivedUnicastPackets 0
scalar Scenario.node[212].nic.mac1609_4 ReceivedBroadcasts 14
scalar Scenario.node[212].nic.mac1609_4 SentPackets 29
scalar Scenario.node[212].nic.mac1609_4 SentAcknowledgements 0
scalar Scenario.node[212].nic.mac1609_4 RetriesExceeded 0
scalar Scenario.node[212].nic.mac1609_4 SNIRLostPackets 0
scalar Scenario.node[212].nic.mac1609_4 RXTXLostPackets 0
scalar Scenario.node[212].nic.mac1609_4 TotalLostPackets 0
scalar Scenario.node[212].nic.mac1609_4 DroppedPacketsInMac 0
scalar Scenario.node[212].nic.mac1609_4 TooLittleTime 0
scalar Scenario.node[212].nic.mac1609_4 TimesIntoBackoff 29
scalar Scenario.node[212].nic.mac1609_4 SlotsBackoff 42
scalar Scenario.node[212].nic.mac1609_4 NumInternalContention 0
scalar Scenario.node[212].nic.mac1609_4 totalBusyTime 0.002093
scalar Scenario.node[212].nic.mac1609_4 retriesExceeded:count 0
attr source org_car2x_veins_modules_mac_sigRetriesExceeded
scalar Scenario.node[212].nic.mac1609_4 sentAcks:count 0
attr source org_car2x_veins_modules_mac_sigSentAck
scalar Scenario.node[212].nic.mac1609_4 sentPackets:count 29
attr source org_car2x_veins_modules_mac_sigSentPacket
scalar Scenario.node[212].nic.mac1609_4 collisions:count 0
attr source org_car2x_veins_modules_mac_sigCollision
scalar Scenario.node[212].nic.mac1609_4 channelBusy:timeavg 7.2172413793103e-05
attr source org_car2x_veins_modules_mac_sigChannelBusy
scalar Scenario.node[212].veinsmobility startTime 1040
scalar Scenario.node[212].veinsmobility totalTime 28
scalar Scenario.node[212].veinsmobility stopTime 1069
scalar Scenario.node[212].veinsmobility minSpeed 1.5683320587967
scalar Scenario.node[212].veinsmobility maxSpeed 12.335407751677
scalar Scenario.node[212].veinsmobility totalDistance 2643.6792215305
scalar Scenario.node[212].veinsmobility totalCO2Emission 80.814701386381
scalar Scenario.node[213].appl generatedWSMs 0
scalar Scenario.node[213].appl receivedWSMs 0
scalar Scenario.node[213].appl generatedBSMs 26
scalar Scenario.node[213].appl receivedBSMs 0
scalar Scenario.node[213].appl generatedWSAs 0
scalar Scenario.node[213].appl receivedWSAs 0
scalar Scenario.node[213].nic.phy80211p busyTime 3.3230769230769e-05
scalar Scenario.node[213].nic.mac1609_4 ReceivedUnicastPackets 0
scalar Scenario.node[213].nic.mac1609_4 ReceivedBroadcasts 18
scalar Scenario.node[213].nic.mac1609_4 SentPackets 26
scalar Scenario.node[213].nic.mac1609_4 SentAcknowledgements 0
scalar Scenario.node[213].nic.mac1609_4 RetriesExceeded 0
scalar Scenario.node[213].nic.mac1609_4 SNIRLostPackets 0
scalar Scenario.node[213].nic.mac1609_4 RXTXLostPackets 0
scalar Scenario.node[213].nic.mac1609_4 TotalLostPackets 0
scalar Scenario.node[213].nic.mac1609_4 DroppedPacketsInMac 0
scalar Scenario.node[213].nic.mac1609_4 TooLittleTime 0
scalar Scenario.node[213].nic.mac1609_4 TimesIntoBackoff 26
scalar Scenario.node[213].nic.mac1609_4 SlotsBackoff 46
scalar Scenario.node[213].nic.mac1609_4 NumInternalContention 0
scalar Scenario.node[213].nic.mac1609_4 totalBusyTime 0.002138
scalar Scenario.node[213].nic.mac1609_4 retriesExceeded:count 0
attr source org_car2x_veins_modules_mac_sigRetriesExceeded
scalar Scenario.node[213].nic.mac1609_4 sentAcks:count 0
attr source org_car2x_veins_modules_mac_sigSentAck
scalar Scenario.node[213].nic.mac1609_4 sentPackets:count 26
attr source org_car2x_veins_modules_mac_sigSentPacket
scalar Scenario.node[213].nic.mac1609_4 collisions:count 0
attr source org_car2x_veins_modules_mac_sigCollision
scalar Scenario.node[213].nic.mac1609_4 channelBusy:timeavg 8.2230769230769e-05
attr source org_car2x_veins_modules_mac_sigChannelBusy
scalar Scenario.node[213].veinsmobility startTime 1045
scalar Scenario.node[213].veinsmobility totalTime 25
scalar Scenario.node[213].veinsmobility stopTime 1071
scalar Scenario.node[213].veinsmobility minSpeed 2.5760465945117
scalar Scenario.node[213].veinsmobility maxSpeed 13.968075187377
scalar Scenario.node[213].veinsmobility totalDistance 2673.259748612
scalar Scenario.node[213].veinsmobility totalCO2Emission 95.767775685271

